
 Fire Dynamics Simulator

 Current Date     : June  6, 2022  11:04:15
 Revision         : FDS6.7.7-0-gfe0d4ef38-release
 Revision Date    : Thu Nov 18 17:10:22 2021 -0500
 Compiler         : Intel ifort 2021.4.0
 Compilation Date : Fri 11/19/2021  08:57 AM

 MPI Enabled;    Number of MPI Processes:       1
 OpenMP Enabled; Number of OpenMP Threads:      4

 MPI version: 3.1
 MPI library version: Intel(R) MPI Library 2021.4 for Windows* OS


 Job TITLE        : Purely buoyant diffusion flame-44_9kW
 Job ID string    : pbdf-44_9kW


 Grid Dimensions, Mesh     1

   Cells in the X Direction            25
   Cells in the Y Direction            25
   Cells in the Z Direction            70
   Number of Grid Cells             43750


 Physical Dimensions, Mesh     1

   Length (m)                       1.500
   Width  (m)                       1.500
   Height (m)                       4.200
   Initial Time Step (s)            0.046

Total Number of Grid Cells         43750


 Miscellaneous Parameters

   Simulation Start Time (s)          0.0
   Simulation End Time (s)          120.0
   LES Calculation
   Eddy Viscosity:           Deardorff Model (C_DEARDORFF = 0.10)
   Near-wall Eddy Viscosity: WALE Model (C_WALE = 0.60)
   Turbulent Prandtl Number:         0.50
   Turbulent Schmidt Number:         0.50
   Background Pressure (Pa):    101325.00
   Ambient Temperature (C):         20.00


 Background Stratification

      Z (m)     P_0 (Pa)    TMP_0 (C)
   ------------------------------------
        3.45    101284.56     20.00
        3.39    101285.26     20.00
        3.33    101285.97     20.00
        3.27    101286.67     20.00
        3.21    101287.37     20.00
        3.15    101288.08     20.00
        3.09    101288.77     20.00
        3.03    101289.48     20.00
        2.97    101290.18     20.00
        2.91    101290.89     20.00
        2.85    101291.59     20.00
        2.79    101292.29     20.00
        2.73    101293.00     20.00
        2.67    101293.70     20.00
        2.61    101294.40     20.00
        2.55    101295.10     20.00
        2.49    101295.81     20.00
        2.43    101296.51     20.00
        2.37    101297.21     20.00
        2.31    101297.92     20.00
        2.25    101298.62     20.00
        2.19    101299.33     20.00
        2.13    101300.03     20.00
        2.07    101300.73     20.00
        2.01    101301.43     20.00
        1.95    101302.13     20.00
        1.89    101302.84     20.00
        1.83    101303.54     20.00
        1.77    101304.25     20.00
        1.71    101304.95     20.00
        1.65    101305.66     20.00
        1.59    101306.35     20.00
        1.53    101307.05     20.00
        1.47    101307.76     20.00
        1.41    101308.46     20.00
        1.35    101309.17     20.00
        1.29    101309.87     20.00
        1.23    101310.58     20.00
        1.17    101311.28     20.00
        1.11    101311.98     20.00
        1.05    101312.68     20.00
        0.99    101313.38     20.00
        0.93    101314.09     20.00
        0.87    101314.79     20.00
        0.81    101315.50     20.00
        0.75    101316.20     20.00
        0.69    101316.90     20.00
        0.63    101317.61     20.00
        0.57    101318.31     20.00
        0.51    101319.02     20.00
        0.45    101319.71     20.00
        0.39    101320.42     20.00
        0.33    101321.12     20.00
        0.27    101321.82     20.00
        0.21    101322.53     20.00
        0.15    101323.23     20.00
        0.09    101323.94     20.00
        0.03    101324.64     20.00
       -0.03    101325.35     20.00
       -0.09    101326.05     20.00
       -0.15    101326.74     20.00
       -0.21    101327.45     20.00
       -0.27    101328.15     20.00
       -0.33    101328.86     20.00
       -0.39    101329.56     20.00
       -0.45    101330.27     20.00
       -0.51    101330.97     20.00
       -0.57    101331.67     20.00
       -0.63    101332.38     20.00
       -0.69    101333.08     20.00


 Mass Fraction Transformation Matrix to Convert Species Mixtures (Columns) to Primitive Species (Rows)

                         AIR       METHANE   PRODUCTS
   METHANE               0.000000  1.000000  0.000000
   NITROGEN              0.762470  0.000000  0.720736
   OXYGEN                0.230997  0.000000  0.000000
   CARBON DIOXIDE        0.000591  0.000000  0.150715
   WATER VAPOR           0.005941  0.000000  0.128549
   CARBON MONOXIDE       0.000000  0.000000  0.000000
   SOOT                  0.000000  0.000000  0.000000
   HYDROGEN              0.000000  0.000000  0.000000
   HYDROGEN CYANIDE      0.000000  0.000000  0.000000


 Primitive Species Information

   METHANE
   Gas Species
   Molecular Weight (g/mol)            16.04246
   Ambient Density (kg/m^3)            0.667
   Enthalpy of Formation (J/kg)       -4.67E+06

   NITROGEN
   Gas Species
   Molecular Weight (g/mol)            28.01340
   Ambient Density (kg/m^3)            1.165
   Enthalpy of Formation (J/kg)        0.00E+00

   OXYGEN
   Gas Species
   Molecular Weight (g/mol)            31.99880
   Ambient Density (kg/m^3)            1.330
   Enthalpy of Formation (J/kg)        0.00E+00

   CARBON DIOXIDE
   Gas Species
   Molecular Weight (g/mol)            44.00950
   Ambient Density (kg/m^3)            1.830
   Enthalpy of Formation (J/kg)       -8.94E+06

   WATER VAPOR
   Gas Species
   Molecular Weight (g/mol)            18.01528
   Ambient Density (kg/m^3)            0.749
   Enthalpy of Formation (J/kg)       -1.34E+07

   CARBON MONOXIDE
   Gas Species
   Molecular Weight (g/mol)            28.01010
   Ambient Density (kg/m^3)            1.164
   Enthalpy of Formation (J/kg)       -3.95E+06

   SOOT
   Gas Species
   Molecular Weight (g/mol)            10.91042
   Ambient Density (kg/m^3)            0.454
   Enthalpy of Formation (J/kg)        0.00E+00

   HYDROGEN
   Gas Species
   Molecular Weight (g/mol)             2.01588
   Ambient Density (kg/m^3)            0.084
   Enthalpy of Formation (J/kg)        0.00E+00

   HYDROGEN CYANIDE
   Gas Species
   Molecular Weight (g/mol)            27.02534
   Ambient Density (kg/m^3)            1.123
   Enthalpy of Formation (J/kg)        4.92E+06


 Tracked (Lumped) Species Information

   AIR
   Molecular Weight (g/mol)            28.75198
   Ambient Density (kg/m^3)            1.195
   Initial Mass Fraction               1.000
   Enthalpy of Formation (J/kg)     -8.50E+04

   Sub Species                    Mass Fraction     Mole Fraction
   NITROGEN                       7.624699E-01      7.825727E-01
   OXYGEN                         2.309974E-01      2.075588E-01
   CARBON DIOXIDE                 5.914650E-04      3.864118E-04
   WATER VAPOR                    5.941209E-03      9.482037E-03
 
     Viscosity (kg/m/s) Ambient,  293 K:  1.80E-05
                                  500 K:  2.61E-05
                                 1000 K:  4.13E-05
                                 1500 K:  5.37E-05
   Therm. Cond. (W/m/K) Ambient,  293 K:  2.56E-02
                                  500 K:  3.81E-02
                                 1000 K:  6.69E-02
                                 1500 K:  9.25E-02
        Enthalpy (J/kg) Ambient,  293 K: -9.01E+04
                                  500 K:  1.22E+05
                                 1000 K:  6.72E+05
                                 1500 K:  1.27E+06
    Spec. Heat (J/kg/K) Ambient,  293 K:  1.02E+03
                                  500 K:  1.04E+03
                                 1000 K:  1.16E+03
                                 1500 K:  1.23E+03
   Diff. Coeff. (m^2/s) Ambient,  293 K:  1.99E-05
                                  500 K:  4.96E-05
                                 1000 K:  1.58E-04
                                 1500 K:  3.09E-04

   METHANE
   Molecular Weight (g/mol)            16.04246
   Ambient Density (kg/m^3)            0.667
   Initial Mass Fraction               0.000
   Enthalpy of Formation (J/kg)     -4.67E+06

   Sub Species                    Mass Fraction     Mole Fraction
   METHANE                        1.000000E+00      1.000000E+00
 
     Viscosity (kg/m/s) Ambient,  293 K:  1.10E-05
                                  500 K:  1.68E-05
                                 1000 K:  2.73E-05
                                 1500 K:  3.56E-05
   Therm. Cond. (W/m/K) Ambient,  293 K:  3.47E-02
                                  500 K:  6.96E-02
                                 1000 K:  1.79E-01
                                 1500 K:  2.88E-01
        Enthalpy (J/kg) Ambient,  293 K: -4.66E+06
                                  500 K: -4.14E+06
                                 1000 K: -2.24E+06
                                 1500 K:  3.48E+05
    Spec. Heat (J/kg/K) Ambient,  293 K:  2.21E+03
                                  500 K:  2.90E+03
                                 1000 K:  4.59E+03
                                 1500 K:  5.66E+03
   Diff. Coeff. (m^2/s) Ambient,  293 K:  2.15E-05
                                  500 K:  5.44E-05
                                 1000 K:  1.75E-04
                                 1500 K:  3.43E-04

   PRODUCTS
   Molecular Weight (g/mol)            27.55701
   Ambient Density (kg/m^3)            1.146
   Initial Mass Fraction               0.000
   Enthalpy of Formation (J/kg)     -3.07E+06

   Sub Species                    Mass Fraction     Mole Fraction
   NITROGEN                       7.207359E-01      7.089938E-01
   CARBON DIOXIDE                 1.507153E-01      9.437196E-02
   WATER VAPOR                    1.285488E-01      1.966343E-01
   CARBON MONOXIDE                0.000000E+00      0.000000E+00
   SOOT                           0.000000E+00      0.000000E+00
   HYDROGEN CYANIDE               0.000000E+00      0.000000E+00
 
     Viscosity (kg/m/s) Ambient,  293 K:  1.60E-05
                                  500 K:  2.37E-05
                                 1000 K:  3.89E-05
                                 1500 K:  5.15E-05
   Therm. Cond. (W/m/K) Ambient,  293 K:  2.35E-02
                                  500 K:  3.62E-02
                                 1000 K:  6.76E-02
                                 1500 K:  9.76E-02
        Enthalpy (J/kg) Ambient,  293 K: -3.08E+06
                                  500 K: -2.84E+06
                                 1000 K: -2.22E+06
                                 1500 K: -1.53E+06
    Spec. Heat (J/kg/K) Ambient,  293 K:  1.12E+03
                                  500 K:  1.17E+03
                                 1000 K:  1.32E+03
                                 1500 K:  1.43E+03
   Diff. Coeff. (m^2/s) Ambient,  293 K:  1.96E-05
                                  500 K:  5.00E-05
                                 1000 K:  1.62E-04
                                 1500 K:  3.19E-04


 Gas Phase Reaction Information

   Fuel                                           Heat of Combustion (kJ/kg)
   METHANE                                                        50010.3475

   Stoichiometry

   Primitive Species Stoich. Coeff.
   Species ID                                                          Molar
   METHANE                                                         -1.000000
   NITROGEN                                                         0.000000
   OXYGEN                                                          -2.000000
   CARBON DIOXIDE                                                   1.000000
   WATER VAPOR                                                      2.000000

   Tracked (Lumped) Species Stoich. Coeff.
   Species ID                                             Molar         Mass
   AIR                                                -9.635823   -17.269734
   METHANE                                            -1.000000    -1.000000
   PRODUCTS                                           10.635823    18.269734

   Reaction Kinetics

   Arrhenius Parameters
   Pre-exponential:    Infinite
   Activation Energy:  N/A

   ODE Solver:  EXPLICIT EULER
   Extinction Model:  EXTINCTION 2
   Auto-Ignition Temperature (K):       0.0
   Critical Flame Temperature (K):   1780.2


 Material Information


 Surface Conditions

   0 INERT (DEFAULT)

   1 BURNER
     HRR Per Unit Area (kW/m2)        498.9
     METHANE Mass Flux (kg/s/m2)   9.98E-03

   2 OPEN
     Passive Vent to Atmosphere

   3 MIRROR
     Symmetry Plane

   4 INTERPOLATED

   5 PERIODIC

   6 HVAC

   7 MASSLESS TRACER

   8 DROPLET

   9 EVACUATION_OUTFLOW
     Normal Velocity (m/s)         0.000

  10 MASSLESS TARGET

  11 PERIODIC FLOW ONLY


 Lagrangian Particle Classes


 Cut-off Density and Temperature

    Minimum Temperature:   -10.0 C
    Maximum Temperature:  2726.8 C
    Minimum Density:  1.195E-01 kg/m3
    Maximum Density:  2.663E+00 kg/m3


 Device Information

   1 ID: T-1
     QUANTITY: TEMPERATURE
     Coordinates (X,Y,Z):   0.000E+00   0.000E+00   0.300E-01
     TEMPORAL STATISTIC: TIME AVERAGE
   2 ID: V-1
     QUANTITY: VELOCITY
     Coordinates (X,Y,Z):   0.000E+00   0.000E+00   0.300E-01
     TEMPORAL STATISTIC: TIME AVERAGE
   3 ID: T-2
     QUANTITY: TEMPERATURE
     Coordinates (X,Y,Z):   0.000E+00   0.000E+00   0.900E-01
     TEMPORAL STATISTIC: TIME AVERAGE
   4 ID: V-2
     QUANTITY: VELOCITY
     Coordinates (X,Y,Z):   0.000E+00   0.000E+00   0.900E-01
     TEMPORAL STATISTIC: TIME AVERAGE
   5 ID: T-3
     QUANTITY: TEMPERATURE
     Coordinates (X,Y,Z):   0.000E+00   0.000E+00   0.150E+00
     TEMPORAL STATISTIC: TIME AVERAGE
   6 ID: V-3
     QUANTITY: VELOCITY
     Coordinates (X,Y,Z):   0.000E+00   0.000E+00   0.150E+00
     TEMPORAL STATISTIC: TIME AVERAGE
   7 ID: T-4
     QUANTITY: TEMPERATURE
     Coordinates (X,Y,Z):   0.000E+00   0.000E+00   0.210E+00
     TEMPORAL STATISTIC: TIME AVERAGE
   8 ID: V-4
     QUANTITY: VELOCITY
     Coordinates (X,Y,Z):   0.000E+00   0.000E+00   0.210E+00
     TEMPORAL STATISTIC: TIME AVERAGE
   9 ID: T-5
     QUANTITY: TEMPERATURE
     Coordinates (X,Y,Z):   0.000E+00   0.000E+00   0.270E+00
     TEMPORAL STATISTIC: TIME AVERAGE
  10 ID: V-5
     QUANTITY: VELOCITY
     Coordinates (X,Y,Z):   0.000E+00   0.000E+00   0.270E+00
     TEMPORAL STATISTIC: TIME AVERAGE
  11 ID: T-6
     QUANTITY: TEMPERATURE
     Coordinates (X,Y,Z):   0.000E+00   0.000E+00   0.330E+00
     TEMPORAL STATISTIC: TIME AVERAGE
  12 ID: V-6
     QUANTITY: VELOCITY
     Coordinates (X,Y,Z):   0.000E+00   0.000E+00   0.330E+00
     TEMPORAL STATISTIC: TIME AVERAGE
  13 ID: T-7
     QUANTITY: TEMPERATURE
     Coordinates (X,Y,Z):   0.000E+00   0.000E+00   0.390E+00
     TEMPORAL STATISTIC: TIME AVERAGE
  14 ID: V-7
     QUANTITY: VELOCITY
     Coordinates (X,Y,Z):   0.000E+00   0.000E+00   0.390E+00
     TEMPORAL STATISTIC: TIME AVERAGE
  15 ID: T-8
     QUANTITY: TEMPERATURE
     Coordinates (X,Y,Z):   0.000E+00   0.000E+00   0.450E+00
     TEMPORAL STATISTIC: TIME AVERAGE
  16 ID: V-8
     QUANTITY: VELOCITY
     Coordinates (X,Y,Z):   0.000E+00   0.000E+00   0.450E+00
     TEMPORAL STATISTIC: TIME AVERAGE
  17 ID: T-9
     QUANTITY: TEMPERATURE
     Coordinates (X,Y,Z):   0.000E+00   0.000E+00   0.510E+00
     TEMPORAL STATISTIC: TIME AVERAGE
  18 ID: V-9
     QUANTITY: VELOCITY
     Coordinates (X,Y,Z):   0.000E+00   0.000E+00   0.510E+00
     TEMPORAL STATISTIC: TIME AVERAGE
  19 ID: T-10
     QUANTITY: TEMPERATURE
     Coordinates (X,Y,Z):   0.000E+00   0.000E+00   0.570E+00
     TEMPORAL STATISTIC: TIME AVERAGE
  20 ID: V-10
     QUANTITY: VELOCITY
     Coordinates (X,Y,Z):   0.000E+00   0.000E+00   0.570E+00
     TEMPORAL STATISTIC: TIME AVERAGE
  21 ID: T-11
     QUANTITY: TEMPERATURE
     Coordinates (X,Y,Z):   0.000E+00   0.000E+00   0.630E+00
     TEMPORAL STATISTIC: TIME AVERAGE
  22 ID: V-11
     QUANTITY: VELOCITY
     Coordinates (X,Y,Z):   0.000E+00   0.000E+00   0.630E+00
     TEMPORAL STATISTIC: TIME AVERAGE
  23 ID: T-12
     QUANTITY: TEMPERATURE
     Coordinates (X,Y,Z):   0.000E+00   0.000E+00   0.690E+00
     TEMPORAL STATISTIC: TIME AVERAGE
  24 ID: V-12
     QUANTITY: VELOCITY
     Coordinates (X,Y,Z):   0.000E+00   0.000E+00   0.690E+00
     TEMPORAL STATISTIC: TIME AVERAGE
  25 ID: T-13
     QUANTITY: TEMPERATURE
     Coordinates (X,Y,Z):   0.000E+00   0.000E+00   0.750E+00
     TEMPORAL STATISTIC: TIME AVERAGE
  26 ID: V-13
     QUANTITY: VELOCITY
     Coordinates (X,Y,Z):   0.000E+00   0.000E+00   0.750E+00
     TEMPORAL STATISTIC: TIME AVERAGE
  27 ID: T-14
     QUANTITY: TEMPERATURE
     Coordinates (X,Y,Z):   0.000E+00   0.000E+00   0.810E+00
     TEMPORAL STATISTIC: TIME AVERAGE
  28 ID: V-14
     QUANTITY: VELOCITY
     Coordinates (X,Y,Z):   0.000E+00   0.000E+00   0.810E+00
     TEMPORAL STATISTIC: TIME AVERAGE
  29 ID: T-15
     QUANTITY: TEMPERATURE
     Coordinates (X,Y,Z):   0.000E+00   0.000E+00   0.870E+00
     TEMPORAL STATISTIC: TIME AVERAGE
  30 ID: V-15
     QUANTITY: VELOCITY
     Coordinates (X,Y,Z):   0.000E+00   0.000E+00   0.870E+00
     TEMPORAL STATISTIC: TIME AVERAGE
  31 ID: T-16
     QUANTITY: TEMPERATURE
     Coordinates (X,Y,Z):   0.000E+00   0.000E+00   0.930E+00
     TEMPORAL STATISTIC: TIME AVERAGE
  32 ID: V-16
     QUANTITY: VELOCITY
     Coordinates (X,Y,Z):   0.000E+00   0.000E+00   0.930E+00
     TEMPORAL STATISTIC: TIME AVERAGE
  33 ID: T-17
     QUANTITY: TEMPERATURE
     Coordinates (X,Y,Z):   0.000E+00   0.000E+00   0.990E+00
     TEMPORAL STATISTIC: TIME AVERAGE
  34 ID: V-17
     QUANTITY: VELOCITY
     Coordinates (X,Y,Z):   0.000E+00   0.000E+00   0.990E+00
     TEMPORAL STATISTIC: TIME AVERAGE


 Slice File Information, Mesh     1

   Sampling Interval (s)             1.333

   1 Nodes:  13  13   0  25   0  70, Quantity: TEMPERATURE
   2 Nodes:   0  25  13  13   0  70, Quantity: VELOCITY
   3 Nodes:   0  25  13  13   0  70, Quantity: U-VELOCITY
   4 Nodes:   0  25  13  13   0  70, Quantity: V-VELOCITY
   5 Nodes:   0  25  13  13   0  70, Quantity: W-VELOCITY


 Radiation Model Information

   Number of control angles  104
   Time step increment         3
   Angle increment             5
   Theta band N_phi   Solid angle
     1:        4     0.120
     2:       12     0.114
     3:       16     0.127
     4:       20     0.120
     5:       20     0.120
     6:       16     0.127
     7:       12     0.114
     8:        4     0.120
   Using gray gas absorption.
   Mean beam length  1.000E-01 m
 
 

 Run Time Diagnostics

       Time Step       1   June  6, 2022  11:04:16
       Step Size:    0.463E-01 s, Total Time:       0.05 s
       Pressure Iterations:      1
       Maximum Velocity Error:  0.15E-02 on Mesh   1 at (  15  11  10)
       Maximum Pressure Error:  0.65E-05 on Mesh   1 at (  10  14   7)
       ---------------------------------------------------------------
       Max CFL number:  0.19E-01 at (   2,   5,   7)
       Max divergence:  0.48E-02 at (  14,  14,  13)
       Min divergence: -0.85E-05 at (  16,  16,  69)
       Max VN number:   0.24E-01 at (   3,  25,  42)
 
       Time Step       2   June  6, 2022  11:04:16
       Step Size:    0.463E-01 s, Total Time:       0.09 s
       Pressure Iterations:      1
       Maximum Velocity Error:  0.12E-01 on Mesh   1 at (  13  13  12)
       Maximum Pressure Error:  0.33E-01 on Mesh   1 at (  14  12  13)
       ---------------------------------------------------------------
       Max CFL number:  0.19E-01 at (   2,   5,   7)
       Max divergence:  0.60E+00 at (  11,  14,  13)
       Min divergence: -0.32E-03 at (  16,  16,  69)
       Max VN number:   0.24E-01 at (   3,  25,  42)
 
       Time Step       3   June  6, 2022  11:04:16
       Step Size:    0.463E-01 s, Total Time:       0.14 s
       Pressure Iterations:      1
       Maximum Velocity Error:  0.12E-01 on Mesh   1 at (  14  13  12)
       Maximum Pressure Error:  0.41E+01 on Mesh   1 at (  15  11  13)
       ---------------------------------------------------------------
       Max CFL number:  0.55E-01 at (  11,  13,  13)
       Max divergence:  0.36E+00 at (  11,  14,  13)
       Min divergence: -0.14E-03 at (  16,  16,  69)
       Max VN number:   0.23E-01 at (   3,  25,  42)
 
       Time Step       4   June  6, 2022  11:04:16
       Step Size:    0.463E-01 s, Total Time:       0.19 s
       Pressure Iterations:      3
       Maximum Velocity Error:  0.14E-01 on Mesh   1 at (  13  13  12)
       Maximum Pressure Error:  0.30E+02 on Mesh   1 at (  15  11  13)
       ---------------------------------------------------------------
       Max CFL number:  0.39E-01 at (  11,  13,  13)
       Max divergence:  0.45E+01 at (  14,  13,  13)
       Min divergence: -0.21E-02 at (  16,  16,  69)
       Max VN number:   0.24E-01 at (   3,  25,  42)
 
       Time Step       5   June  6, 2022  11:04:16
       Step Size:    0.463E-01 s, Total Time:       0.23 s
       Pressure Iterations:      3
       Maximum Velocity Error:  0.18E-01 on Mesh   1 at (  13  13  12)
       Maximum Pressure Error:  0.20E+03 on Mesh   1 at (  15  14  13)
       ---------------------------------------------------------------
       Max CFL number:  0.33E+00 at (  14,  13,  13)
       Max divergence:  0.19E+01 at (  14,  13,  13)
       Min divergence: -0.11E-02 at (  16,  16,  69)
       Max VN number:   0.47E-01 at (  14,  13,  13)
 
       Time Step       6   June  6, 2022  11:04:16
       Step Size:    0.463E-01 s, Total Time:       0.28 s
       Pressure Iterations:      3
       Maximum Velocity Error:  0.14E-01 on Mesh   1 at (  13  13  12)
       Maximum Pressure Error:  0.20E+03 on Mesh   1 at (  15  14  13)
       ---------------------------------------------------------------
       Max CFL number:  0.16E+00 at (  14,  13,  13)
       Max divergence:  0.56E+01 at (  11,  13,  13)
       Min divergence: -0.31E-02 at (  25,  25,  70)
       Max VN number:   0.41E-01 at (  11,  11,  13)
 
       Time Step       7   June  6, 2022  11:04:16
       Step Size:    0.463E-01 s, Total Time:       0.32 s
       Pressure Iterations:      3
       Maximum Velocity Error:  0.12E-01 on Mesh   1 at (  13  13  12)
       Maximum Pressure Error:  0.38E+03 on Mesh   1 at (  11  13  13)
       ---------------------------------------------------------------
       Max CFL number:  0.44E+00 at (  11,  13,  13)
       Max divergence:  0.30E+01 at (  11,  11,  13)
       Min divergence: -0.21E-02 at (  25,  25,  70)
       Max VN number:   0.66E-01 at (  13,  13,  13)
 
       Time Step       8   June  6, 2022  11:04:16
       Step Size:    0.463E-01 s, Total Time:       0.37 s
       Pressure Iterations:      2
       Maximum Velocity Error:  0.14E-01 on Mesh   1 at (  13  13  12)
       Maximum Pressure Error:  0.24E+03 on Mesh   1 at (  15  15  13)
       ---------------------------------------------------------------
       Max CFL number:  0.27E+00 at (  11,  15,  13)
       Max divergence:  0.49E+01 at (  15,  13,  13)
       Min divergence: -0.35E-02 at (  25,  25,  70)
       Max VN number:   0.55E-01 at (  16,  12,  12)
 
       Time Step       9   June  6, 2022  11:04:17
       Step Size:    0.463E-01 s, Total Time:       0.42 s
       Pressure Iterations:      3
       Maximum Velocity Error:  0.12E-01 on Mesh   1 at (  13  13  12)
       Maximum Pressure Error:  0.41E+03 on Mesh   1 at (  15  11  13)
       ---------------------------------------------------------------
       Max CFL number:  0.43E+00 at (  15,  11,  13)
       Max divergence:  0.33E+01 at (  11,  11,  13)
       Min divergence: -0.23E-02 at (  25,  25,  70)
       Max VN number:   0.81E-01 at (  15,  15,  14)
 
       Time Step      10   June  6, 2022  11:04:17
       Step Size:    0.463E-01 s, Total Time:       0.46 s
       Pressure Iterations:      2
       Maximum Velocity Error:  0.22E-01 on Mesh   1 at (  13  13  12)
       Maximum Pressure Error:  0.29E+03 on Mesh   1 at (  15  11  13)
       ---------------------------------------------------------------
       Max CFL number:  0.47E+00 at (  15,  11,  13)
       Max divergence:  0.41E+01 at (  15,  13,  13)
       Min divergence: -0.36E-02 at (  25,  25,  70)
       Max VN number:   0.12E+00 at (  15,  15,  14)
 
       Time Step      20   June  6, 2022  11:04:18
       Step Size:    0.188E-01 s, Total Time:       0.80 s
       Pressure Iterations:      2
       Maximum Velocity Error:  0.58E-02 on Mesh   1 at (  13  14  12)
       Maximum Pressure Error:  0.28E+03 on Mesh   1 at (  14  13  17)
       ---------------------------------------------------------------
       Max CFL number:  0.89E+00 at (  13,  14,  14)
       Max divergence:  0.74E+01 at (  14,  13,  13)
       Min divergence: -0.10E+01 at (  13,  13,  13)
       Max VN number:   0.23E+00 at (  14,  13,  17)
 
       Time Step      30   June  6, 2022  11:04:19
       Step Size:    0.107E-01 s, Total Time:       0.94 s
       Pressure Iterations:      1
       Maximum Velocity Error:  0.46E-02 on Mesh   1 at (  14  13  12)
       Maximum Pressure Error:  0.56E+03 on Mesh   1 at (  13  13  20)
       ---------------------------------------------------------------
       Max CFL number:  0.88E+00 at (  13,  13,  20)
       Max divergence:  0.62E+01 at (  15,  14,  13)
       Min divergence: -0.28E+01 at (  14,  13,  20)
       Max VN number:   0.27E+00 at (  13,  13,  20)
 
       Time Step      40   June  6, 2022  11:04:20
       Step Size:    0.107E-01 s, Total Time:       1.05 s
       Pressure Iterations:      2
       Maximum Velocity Error:  0.11E-01 on Mesh   1 at (  13  13  12)
       Maximum Pressure Error:  0.30E+03 on Mesh   1 at (  13  13  25)
       ---------------------------------------------------------------
       Max CFL number:  0.85E+00 at (  13,  13,  24)
       Max divergence:  0.62E+01 at (  13,  15,  13)
       Min divergence: -0.29E+01 at (  13,  13,  25)
       Max VN number:   0.36E+00 at (  13,  13,  24)
 
       Time Step      50   June  6, 2022  11:04:22
       Step Size:    0.106E-01 s, Total Time:       1.16 s
       Pressure Iterations:      1
       Maximum Velocity Error:  0.26E-01 on Mesh   1 at (  13  13  12)
       Maximum Pressure Error:  0.57E+03 on Mesh   1 at (  13  13  22)
       ---------------------------------------------------------------
       Max CFL number:  0.10E+01 at (  13,  13,  21)
       Max divergence:  0.65E+01 at (  12,  14,  13)
       Min divergence: -0.26E+01 at (  13,  13,  13)
       Max VN number:   0.32E+00 at (  13,  13,  28)
 
       Time Step      60   June  6, 2022  11:04:23
       Step Size:    0.758E-02 s, Total Time:       1.24 s
       Pressure Iterations:      2
       Maximum Velocity Error:  0.89E-02 on Mesh   1 at (  13  13  12)
       Maximum Pressure Error:  0.61E+03 on Mesh   1 at (  13  13  19)
       ---------------------------------------------------------------
       Max CFL number:  0.90E+00 at (  13,  13,  22)
       Max divergence:  0.72E+01 at (  14,  15,  13)
       Min divergence: -0.38E+01 at (  13,  13,  19)
       Max VN number:   0.20E+00 at (  13,  13,  20)
 
       Time Step      70   June  6, 2022  11:04:24
       Step Size:    0.834E-02 s, Total Time:       1.32 s
       Pressure Iterations:      1
       Maximum Velocity Error:  0.42E-02 on Mesh   1 at (  13  13  12)
       Maximum Pressure Error:  0.48E+03 on Mesh   1 at (  14  14  31)
       ---------------------------------------------------------------
       Max CFL number:  0.86E+00 at (  13,  13,  26)
       Max divergence:  0.72E+01 at (  11,  14,  13)
       Min divergence: -0.36E+01 at (  13,  13,  20)
       Max VN number:   0.24E+00 at (  13,  13,  34)
 
       Time Step      80   June  6, 2022  11:04:25
       Step Size:    0.834E-02 s, Total Time:       1.40 s
       Pressure Iterations:      2
       Maximum Velocity Error:  0.20E-01 on Mesh   1 at (  13  13  12)
       Maximum Pressure Error:  0.58E+03 on Mesh   1 at (  13  13  13)
       ---------------------------------------------------------------
       Max CFL number:  0.95E+00 at (  14,  14,  35)
       Max divergence:  0.70E+01 at (  12,  15,  13)
       Min divergence: -0.36E+01 at (  13,  13,  23)
       Max VN number:   0.24E+00 at (  14,  14,  34)
 
       Time Step      90   June  6, 2022  11:04:27
       Step Size:    0.834E-02 s, Total Time:       1.49 s
       Pressure Iterations:      2
       Maximum Velocity Error:  0.72E-02 on Mesh   1 at (  13  13  12)
       Maximum Pressure Error:  0.65E+03 on Mesh   1 at (  14  14  40)
       ---------------------------------------------------------------
       Max CFL number:  0.92E+00 at (  13,  13,  38)
       Max divergence:  0.72E+01 at (  12,  15,  13)
       Min divergence: -0.43E+01 at (  13,  13,  21)
       Max VN number:   0.29E+00 at (  14,  14,  39)
 
       Time Step     100   June  6, 2022  11:04:28
       Step Size:    0.834E-02 s, Total Time:       1.57 s
       Pressure Iterations:      2
       Maximum Velocity Error:  0.90E-02 on Mesh   1 at (  13  13  12)
       Maximum Pressure Error:  0.79E+03 on Mesh   1 at (  12  13  24)
       ---------------------------------------------------------------
       Max CFL number:  0.96E+00 at (  15,  12,  39)
       Max divergence:  0.74E+01 at (  11,  13,  13)
       Min divergence: -0.67E+01 at (  13,  13,  21)
       Max VN number:   0.29E+00 at (  14,  14,  44)
 
       Time Step     200   June  6, 2022  11:04:39
       Step Size:    0.742E-02 s, Total Time:       2.31 s
       Pressure Iterations:      1
       Maximum Velocity Error:  0.21E-01 on Mesh   1 at (  13  13  12)
       Maximum Pressure Error:  0.47E+03 on Mesh   1 at (  14  13  28)
       ---------------------------------------------------------------
       Max CFL number:  0.88E+00 at (  12,  13,  40)
       Max divergence:  0.82E+01 at (  11,  12,  13)
       Min divergence: -0.64E+01 at (  13,  13,  23)
       Max VN number:   0.26E+00 at (  13,  17,  69)
 
       Time Step     300   June  6, 2022  11:04:50
       Step Size:    0.797E-02 s, Total Time:       3.05 s
       Pressure Iterations:      1
       Maximum Velocity Error:  0.60E-02 on Mesh   1 at (  13  13  12)
       Maximum Pressure Error:  0.62E+03 on Mesh   1 at (  14  13  25)
       ---------------------------------------------------------------
       Max CFL number:  0.90E+00 at (  14,  12,  41)
       Max divergence:  0.81E+01 at (  14,  15,  13)
       Min divergence: -0.44E+01 at (  13,  13,  26)
       Max VN number:   0.45E+00 at (   9,   1,  61)
 
       Time Step     400   June  6, 2022  11:05:05
       Step Size:    0.837E-02 s, Total Time:       3.84 s
       Pressure Iterations:      2
       Maximum Velocity Error:  0.79E-02 on Mesh   1 at (  13  13  12)
       Maximum Pressure Error:  0.46E+03 on Mesh   1 at (  15  13  19)
       ---------------------------------------------------------------
       Max CFL number:  0.89E+00 at (  14,  13,  27)
       Max divergence:  0.89E+01 at (  14,  12,  13)
       Min divergence: -0.47E+01 at (  14,  13,  28)
       Max VN number:   0.37E+00 at (  24,  13,  70)
 
       Time Step     500   June  6, 2022  11:05:19
       Step Size:    0.864E-02 s, Total Time:       4.67 s
       Pressure Iterations:      2
       Maximum Velocity Error:  0.93E-02 on Mesh   1 at (  13  13  12)
       Maximum Pressure Error:  0.60E+03 on Mesh   1 at (  13  14  27)
       ---------------------------------------------------------------
       Max CFL number:  0.97E+00 at (  14,  13,  33)
       Max divergence:  0.81E+01 at (  14,  15,  13)
       Min divergence: -0.42E+01 at (  14,  13,  34)
       Max VN number:   0.39E+00 at (  24,  22,  70)
 
       Time Step     600   June  6, 2022  11:05:33
       Step Size:    0.741E-02 s, Total Time:       5.43 s
       Pressure Iterations:      1
       Maximum Velocity Error:  0.20E-01 on Mesh   1 at (  13  13  12)
       Maximum Pressure Error:  0.65E+03 on Mesh   1 at (  13  12  31)
       ---------------------------------------------------------------
       Max CFL number:  0.87E+00 at (  13,  12,  30)
       Max divergence:  0.80E+01 at (  14,  12,  13)
       Min divergence: -0.40E+01 at (  14,  12,  22)
       Max VN number:   0.29E+00 at (  10,  13,  70)
 
       Time Step     700   June  6, 2022  11:05:46
       Step Size:    0.847E-02 s, Total Time:       6.27 s
       Pressure Iterations:      2
       Maximum Velocity Error:  0.34E-02 on Mesh   1 at (  13  13  12)
       Maximum Pressure Error:  0.44E+03 on Mesh   1 at (  15  13  33)
       ---------------------------------------------------------------
       Max CFL number:  0.96E+00 at (  14,  14,  37)
       Max divergence:  0.80E+01 at (  11,  14,  13)
       Min divergence: -0.38E+01 at (  12,  13,  20)
       Max VN number:   0.34E+00 at (  21,   1,  57)
 
       Time Step     800   June  6, 2022  11:06:00
       Step Size:    0.886E-02 s, Total Time:       7.14 s
       Pressure Iterations:      1
       Maximum Velocity Error:  0.30E-02 on Mesh   1 at (  11  14  12)
       Maximum Pressure Error:  0.49E+03 on Mesh   1 at (  13  14  22)
       ---------------------------------------------------------------
       Max CFL number:  0.98E+00 at (  14,  12,  29)
       Max divergence:  0.88E+01 at (  12,  13,  13)
       Min divergence: -0.39E+01 at (  14,  13,  23)
       Max VN number:   0.40E+00 at (   5,  25,  55)
 
       Time Step     900   June  6, 2022  11:06:13
       Step Size:    0.857E-02 s, Total Time:       7.97 s
       Pressure Iterations:      2
       Maximum Velocity Error:  0.91E-02 on Mesh   1 at (  13  13  12)
       Maximum Pressure Error:  0.82E+03 on Mesh   1 at (  11  12  26)
       ---------------------------------------------------------------
       Max CFL number:  0.10E+01 at (  13,  12,  31)
       Max divergence:  0.78E+01 at (  11,  13,  13)
       Min divergence: -0.41E+01 at (  13,  13,  20)
       Max VN number:   0.31E+00 at (  14,  16,  33)
 
       Time Step    1000   June  6, 2022  11:06:26
       Step Size:    0.741E-02 s, Total Time:       8.77 s
       Pressure Iterations:      1
       Maximum Velocity Error:  0.16E-01 on Mesh   1 at (  13  13  12)
       Maximum Pressure Error:  0.77E+03 on Mesh   1 at (  12  12  22)
       ---------------------------------------------------------------
       Max CFL number:  0.86E+00 at (  14,  13,  31)
       Max divergence:  0.77E+01 at (  12,  11,  13)
       Min divergence: -0.42E+01 at (  13,  13,  23)
       Max VN number:   0.38E+00 at (   1,  20,  56)
 
       Time Step    1100   June  6, 2022  11:06:39
       Step Size:    0.905E-02 s, Total Time:       9.60 s
       Pressure Iterations:      1
       Maximum Velocity Error:  0.25E-01 on Mesh   1 at (  13  13  12)
       Maximum Pressure Error:  0.97E+03 on Mesh   1 at (  12  13  21)
       ---------------------------------------------------------------
       Max CFL number:  0.97E+00 at (  12,  13,  20)
       Max divergence:  0.76E+01 at (  12,  11,  13)
       Min divergence: -0.52E+01 at (  12,  13,  21)
       Max VN number:   0.53E+00 at (  24,   1,  64)
 
       Time Step    1200   June  6, 2022  11:06:51
       Step Size:    0.760E-02 s, Total Time:      10.43 s
       Pressure Iterations:      1
       Maximum Velocity Error:  0.14E-01 on Mesh   1 at (  13  13  12)
       Maximum Pressure Error:  0.70E+03 on Mesh   1 at (  12  13  27)
       ---------------------------------------------------------------
       Max CFL number:  0.86E+00 at (  12,  13,  27)
       Max divergence:  0.76E+01 at (  12,  11,  13)
       Min divergence: -0.52E+01 at (  13,  13,  20)
       Max VN number:   0.25E+00 at (   1,  15,  61)
 
       Time Step    1300   June  6, 2022  11:07:02
       Step Size:    0.798E-02 s, Total Time:      11.26 s
       Pressure Iterations:      1
       Maximum Velocity Error:  0.25E-02 on Mesh   1 at (  13  14  12)
       Maximum Pressure Error:  0.28E+03 on Mesh   1 at (  14  13  22)
       ---------------------------------------------------------------
       Max CFL number:  0.84E+00 at (  14,  13,  26)
       Max divergence:  0.76E+01 at (  14,  15,  13)
       Min divergence: -0.39E+01 at (  14,  13,  21)
       Max VN number:   0.26E+00 at (  14,  13,  26)
 
       Time Step    1400   June  6, 2022  11:07:12
       Step Size:    0.858E-02 s, Total Time:      12.12 s
       Pressure Iterations:      1
       Maximum Velocity Error:  0.17E-01 on Mesh   1 at (  13  13  12)
       Maximum Pressure Error:  0.35E+03 on Mesh   1 at (  13  13  21)
       ---------------------------------------------------------------
       Max CFL number:  0.83E+00 at (  13,  13,  22)
       Max divergence:  0.72E+01 at (  13,  12,  13)
       Min divergence: -0.38E+01 at (  13,  14,  21)
       Max VN number:   0.27E+00 at (  21,   1,  46)
 
       Time Step    1500   June  6, 2022  11:07:23
       Step Size:    0.775E-02 s, Total Time:      12.98 s
       Pressure Iterations:      2
       Maximum Velocity Error:  0.14E-01 on Mesh   1 at (  13  13  12)
       Maximum Pressure Error:  0.52E+03 on Mesh   1 at (  13  13  13)
       ---------------------------------------------------------------
       Max CFL number:  0.84E+00 at (  13,  14,  32)
       Max divergence:  0.75E+01 at (  13,  12,  13)
       Min divergence: -0.26E+01 at (  13,  14,  26)
       Max VN number:   0.29E+00 at (  19,   1,  47)
 
       Time Step    1600   June  6, 2022  11:07:34
       Step Size:    0.790E-02 s, Total Time:      13.83 s
       Pressure Iterations:      2
       Maximum Velocity Error:  0.69E-02 on Mesh   1 at (  13  13  12)
       Maximum Pressure Error:  0.72E+03 on Mesh   1 at (  13  12  25)
       ---------------------------------------------------------------
       Max CFL number:  0.88E+00 at (  13,  12,  25)
       Max divergence:  0.81E+01 at (  12,  12,  13)
       Min divergence: -0.42E+01 at (  13,  12,  24)
       Max VN number:   0.27E+00 at (  13,  12,  24)
 
       Time Step    1700   June  6, 2022  11:07:44
       Step Size:    0.980E-02 s, Total Time:      14.69 s
       Pressure Iterations:      2
       Maximum Velocity Error:  0.70E-02 on Mesh   1 at (  13  13  12)
       Maximum Pressure Error:  0.46E+03 on Mesh   1 at (  14  14  25)
       ---------------------------------------------------------------
       Max CFL number:  0.94E+00 at (  13,  12,  26)
       Max divergence:  0.72E+01 at (  13,  11,  13)
       Min divergence: -0.34E+01 at (  13,  13,  23)
       Max VN number:   0.31E+00 at (  25,  17,  59)
 
       Time Step    1800   June  6, 2022  11:07:55
       Step Size:    0.886E-02 s, Total Time:      15.58 s
       Pressure Iterations:      1
       Maximum Velocity Error:  0.23E-01 on Mesh   1 at (  13  13  12)
       Maximum Pressure Error:  0.30E+03 on Mesh   1 at (  12  14  29)
       ---------------------------------------------------------------
       Max CFL number:  0.93E+00 at (  11,  12,  32)
       Max divergence:  0.92E+01 at (  12,  14,  13)
       Min divergence: -0.34E+01 at (  12,  14,  23)
       Max VN number:   0.50E+00 at (   2,  14,  70)
 
       Time Step    1900   June  6, 2022  11:08:06
       Step Size:    0.886E-02 s, Total Time:      16.46 s
       Pressure Iterations:      2
       Maximum Velocity Error:  0.98E-02 on Mesh   1 at (  13  13  12)
       Maximum Pressure Error:  0.35E+03 on Mesh   1 at (  13  13  13)
       ---------------------------------------------------------------
       Max CFL number:  0.83E+00 at (  13,  13,  21)
       Max divergence:  0.75E+01 at (  12,  13,  13)
       Min divergence: -0.39E+01 at (  13,  14,  25)
       Max VN number:   0.37E+00 at (  25,   2,  65)
 
       Time Step    2000   June  6, 2022  11:08:16
       Step Size:    0.857E-02 s, Total Time:      17.34 s
       Pressure Iterations:      1
       Maximum Velocity Error:  0.16E-01 on Mesh   1 at (  13  13  12)
       Maximum Pressure Error:  0.21E+03 on Mesh   1 at (  14  12  25)
       ---------------------------------------------------------------
       Max CFL number:  0.90E+00 at (  15,  13,  40)
       Max divergence:  0.75E+01 at (  11,  13,  13)
       Min divergence: -0.36E+01 at (  13,  13,  20)
       Max VN number:   0.33E+00 at (   2,   1,  63)
 
       Time Step    2100   June  6, 2022  11:08:27
       Step Size:    0.793E-02 s, Total Time:      18.23 s
       Pressure Iterations:      1
       Maximum Velocity Error:  0.16E-02 on Mesh   1 at (  15  14  12)
       Maximum Pressure Error:  0.39E+03 on Mesh   1 at (  13  14  27)
       ---------------------------------------------------------------
       Max CFL number:  0.88E+00 at (  11,  12,  32)
       Max divergence:  0.75E+01 at (  13,  12,  13)
       Min divergence: -0.51E+01 at (  13,  12,  24)
       Max VN number:   0.29E+00 at (  11,  12,  32)
 
       Time Step    2200   June  6, 2022  11:08:37
       Step Size:    0.100E-01 s, Total Time:      19.15 s
       Pressure Iterations:      1
       Maximum Velocity Error:  0.22E-01 on Mesh   1 at (  13  14  12)
       Maximum Pressure Error:  0.35E+03 on Mesh   1 at (  13  14  18)
       ---------------------------------------------------------------
       Max CFL number:  0.96E+00 at (  12,  10,  28)
       Max divergence:  0.74E+01 at (  11,  14,  13)
       Min divergence: -0.38E+01 at (  12,  10,  29)
       Max VN number:   0.36E+00 at (  12,  10,  28)
 
       Time Step    2300   June  6, 2022  11:08:48
       Step Size:    0.906E-02 s, Total Time:      20.06 s
       Pressure Iterations:      1
       Maximum Velocity Error:  0.24E-01 on Mesh   1 at (  13  13  12)
       Maximum Pressure Error:  0.26E+03 on Mesh   1 at (  13  13  19)
       ---------------------------------------------------------------
       Max CFL number:  0.83E+00 at (  12,  13,  21)
       Max divergence:  0.72E+01 at (  15,  14,  13)
       Min divergence: -0.30E+01 at (  12,  14,  24)
       Max VN number:   0.49E+00 at (  25,  11,  49)
 
       Time Step    2400   June  6, 2022  11:08:58
       Step Size:    0.907E-02 s, Total Time:      20.99 s
       Pressure Iterations:      1
       Maximum Velocity Error:  0.40E-02 on Mesh   1 at (  12  14  12)
       Maximum Pressure Error:  0.55E+03 on Mesh   1 at (  14  13  25)
       ---------------------------------------------------------------
       Max CFL number:  0.91E+00 at (  14,  13,  24)
       Max divergence:  0.77E+01 at (  13,  12,  13)
       Min divergence: -0.37E+01 at (  13,  12,  23)
       Max VN number:   0.27E+00 at (  25,  18,  62)
 
       Time Step    2500   June  6, 2022  11:09:09
       Step Size:    0.943E-02 s, Total Time:      21.90 s
       Pressure Iterations:      1
       Maximum Velocity Error:  0.30E-02 on Mesh   1 at (  14  12  12)
       Maximum Pressure Error:  0.25E+03 on Mesh   1 at (  13  12  27)
       ---------------------------------------------------------------
       Max CFL number:  0.91E+00 at (  14,  16,  40)
       Max divergence:  0.76E+01 at (  12,  13,  13)
       Min divergence: -0.47E+01 at (  14,  14,  19)
       Max VN number:   0.29E+00 at (  14,  16,  40)
 
       Time Step    2600   June  6, 2022  11:09:19
       Step Size:    0.883E-02 s, Total Time:      22.85 s
       Pressure Iterations:      1
       Maximum Velocity Error:  0.17E-02 on Mesh   1 at (  12  12  12)
       Maximum Pressure Error:  0.47E+03 on Mesh   1 at (  12  13  29)
       ---------------------------------------------------------------
       Max CFL number:  0.95E+00 at (  12,  13,  27)
       Max divergence:  0.78E+01 at (  12,  13,  13)
       Min divergence: -0.41E+01 at (  13,  13,  20)
       Max VN number:   0.43E+00 at (  24,   1,  65)
 
       Time Step    2700   June  6, 2022  11:09:30
       Step Size:    0.788E-02 s, Total Time:      23.74 s
       Pressure Iterations:      1
       Maximum Velocity Error:  0.24E-02 on Mesh   1 at (  13  13  12)
       Maximum Pressure Error:  0.51E+03 on Mesh   1 at (  12  14  29)
       ---------------------------------------------------------------
       Max CFL number:  0.84E+00 at (  12,  14,  28)
       Max divergence:  0.76E+01 at (  13,  12,  13)
       Min divergence: -0.35E+01 at (  12,  14,  28)
       Max VN number:   0.29E+00 at (  12,  14,  28)
 
       Time Step    2800   June  6, 2022  11:09:41
       Step Size:    0.967E-02 s, Total Time:      24.64 s
       Pressure Iterations:      1
       Maximum Velocity Error:  0.16E-01 on Mesh   1 at (  13  13  12)
       Maximum Pressure Error:  0.32E+03 on Mesh   1 at (  12  13  23)
       ---------------------------------------------------------------
       Max CFL number:  0.89E+00 at (  12,  13,  21)
       Max divergence:  0.11E+02 at (  13,  12,  13)
       Min divergence: -0.30E+01 at (  12,  12,  18)
       Max VN number:   0.31E+00 at (   7,  22,  70)
 
       Time Step    2900   June  6, 2022  11:09:51
       Step Size:    0.896E-02 s, Total Time:      25.56 s
       Pressure Iterations:      2
       Maximum Velocity Error:  0.80E-02 on Mesh   1 at (  13  13  12)
       Maximum Pressure Error:  0.33E+03 on Mesh   1 at (  13  13  13)
       ---------------------------------------------------------------
       Max CFL number:  0.88E+00 at (  15,  15,  37)
       Max divergence:  0.74E+01 at (  12,  13,  13)
       Min divergence: -0.32E+01 at (  12,  13,  20)
       Max VN number:   0.27E+00 at (   9,   3,  70)
 
       Time Step    3000   June  6, 2022  11:10:03
       Step Size:    0.911E-02 s, Total Time:      26.50 s
       Pressure Iterations:      1
       Maximum Velocity Error:  0.26E-02 on Mesh   1 at (  15  12  12)
       Maximum Pressure Error:  0.53E+03 on Mesh   1 at (  11  14  28)
       ---------------------------------------------------------------
       Max CFL number:  0.94E+00 at (  11,  14,  27)
       Max divergence:  0.73E+01 at (  13,  15,  13)
       Min divergence: -0.28E+01 at (  14,  12,  18)
       Max VN number:   0.33E+00 at (  11,  13,  29)
 
       Time Step    3100   June  6, 2022  11:10:15
       Step Size:    0.985E-02 s, Total Time:      27.46 s
       Pressure Iterations:      2
       Maximum Velocity Error:  0.70E-02 on Mesh   1 at (  13  13  12)
       Maximum Pressure Error:  0.24E+03 on Mesh   1 at (  11  15  29)
       ---------------------------------------------------------------
       Max CFL number:  0.87E+00 at (  12,  13,  24)
       Max divergence:  0.77E+01 at (  12,  12,  13)
       Min divergence: -0.36E+01 at (  13,  12,  21)
       Max VN number:   0.38E+00 at (  25,  24,  63)
 
       Time Step    3200   June  6, 2022  11:10:25
       Step Size:    0.994E-02 s, Total Time:      28.43 s
       Pressure Iterations:      1
       Maximum Velocity Error:  0.25E-01 on Mesh   1 at (  13  13  12)
       Maximum Pressure Error:  0.27E+03 on Mesh   1 at (  13  14  30)
       ---------------------------------------------------------------
       Max CFL number:  0.84E+00 at (  13,  14,  30)
       Max divergence:  0.74E+01 at (  12,  13,  13)
       Min divergence: -0.30E+01 at (  13,  13,  28)
       Max VN number:   0.31E+00 at (  25,   3,  44)
 
       Time Step    3300   June  6, 2022  11:10:36
       Step Size:    0.935E-02 s, Total Time:      29.38 s
       Pressure Iterations:      1
       Maximum Velocity Error:  0.35E-02 on Mesh   1 at (  13  14  12)
       Maximum Pressure Error:  0.28E+03 on Mesh   1 at (  13  12  21)
       ---------------------------------------------------------------
       Max CFL number:  0.86E+00 at (  12,  13,  30)
       Max divergence:  0.75E+01 at (  11,  13,  13)
       Min divergence: -0.29E+01 at (  12,  13,  23)
       Max VN number:   0.30E+00 at (  11,  21,  70)
 
       Time Step    3400   June  6, 2022  11:10:46
       Step Size:    0.103E-01 s, Total Time:      30.33 s
       Pressure Iterations:      1
       Maximum Velocity Error:  0.96E-02 on Mesh   1 at (  14  14  12)
       Maximum Pressure Error:  0.35E+03 on Mesh   1 at (  14  13  20)
       ---------------------------------------------------------------
       Max CFL number:  0.95E+00 at (  14,  13,  20)
       Max divergence:  0.72E+01 at (  13,  12,  13)
       Min divergence: -0.34E+01 at (  15,  13,  20)
       Max VN number:   0.51E+00 at (  12,  25,  61)
 
       Time Step    3500   June  6, 2022  11:10:58
       Step Size:    0.102E-01 s, Total Time:      31.29 s
       Pressure Iterations:      1
       Maximum Velocity Error:  0.23E-02 on Mesh   1 at (  14  14  12)
       Maximum Pressure Error:  0.11E+03 on Mesh   1 at (  10  14  30)
       ---------------------------------------------------------------
       Max CFL number:  0.81E+00 at (  11,  13,  29)
       Max divergence:  0.69E+01 at (  14,  12,  13)
       Min divergence: -0.46E+01 at (  12,  13,  21)
       Max VN number:   0.35E+00 at (   1,  14,  44)
 
       Time Step    3600   June  6, 2022  11:11:09
       Step Size:    0.891E-02 s, Total Time:      32.26 s
       Pressure Iterations:      1
       Maximum Velocity Error:  0.21E-01 on Mesh   1 at (  13  13  12)
       Maximum Pressure Error:  0.19E+03 on Mesh   1 at (  12  12  17)
       ---------------------------------------------------------------
       Max CFL number:  0.84E+00 at (  12,  15,  38)
       Max divergence:  0.75E+01 at (  14,  11,  13)
       Min divergence: -0.38E+01 at (  13,  13,  13)
       Max VN number:   0.34E+00 at (   4,  25,  56)
 
       Time Step    3700   June  6, 2022  11:11:20
       Step Size:    0.108E-01 s, Total Time:      33.28 s
       Pressure Iterations:      2
       Maximum Velocity Error:  0.10E-01 on Mesh   1 at (  12  13  12)
       Maximum Pressure Error:  0.34E+03 on Mesh   1 at (  12  13  13)
       ---------------------------------------------------------------
       Max CFL number:  0.86E+00 at (   9,  14,  36)
       Max divergence:  0.92E+01 at (  14,  14,  13)
       Min divergence: -0.31E+01 at (  12,  11,  28)
       Max VN number:   0.38E+00 at (   1,  15,  44)
 
       Time Step    3800   June  6, 2022  11:11:31
       Step Size:    0.117E-01 s, Total Time:      34.32 s
       Pressure Iterations:      1
       Maximum Velocity Error:  0.43E-02 on Mesh   1 at (  13  13  12)
       Maximum Pressure Error:  0.31E+03 on Mesh   1 at (  13  14  26)
       ---------------------------------------------------------------
       Max CFL number:  0.87E+00 at (  11,  12,  38)
       Max divergence:  0.69E+01 at (  11,  13,  13)
       Min divergence: -0.22E+01 at (  13,  14,  25)
       Max VN number:   0.48E+00 at (   1,  16,  64)
 
       Time Step    3900   June  6, 2022  11:11:42
       Step Size:    0.971E-02 s, Total Time:      35.30 s
       Pressure Iterations:      1
       Maximum Velocity Error:  0.50E-02 on Mesh   1 at (  14  12  12)
       Maximum Pressure Error:  0.45E+03 on Mesh   1 at (  13  13  22)
       ---------------------------------------------------------------
       Max CFL number:  0.94E+00 at (  14,  13,  34)
       Max divergence:  0.70E+01 at (  13,  14,  13)
       Min divergence: -0.25E+01 at (  13,  14,  21)
       Max VN number:   0.41E+00 at (   1,   5,  54)
 
       Time Step    4000   June  6, 2022  11:11:53
       Step Size:    0.113E-01 s, Total Time:      36.31 s
       Pressure Iterations:      1
       Maximum Velocity Error:  0.99E-02 on Mesh   1 at (  14  12  12)
       Maximum Pressure Error:  0.34E+03 on Mesh   1 at (  14  14  19)
       ---------------------------------------------------------------
       Max CFL number:  0.98E+00 at (  13,  12,  25)
       Max divergence:  0.75E+01 at (  12,  14,  13)
       Min divergence: -0.28E+01 at (  14,  13,  17)
       Max VN number:   0.42E+00 at (  24,  24,  70)
 
       Time Step    4100   June  6, 2022  11:12:04
       Step Size:    0.892E-02 s, Total Time:      37.30 s
       Pressure Iterations:      1
       Maximum Velocity Error:  0.14E-01 on Mesh   1 at (  14  13  12)
       Maximum Pressure Error:  0.22E+03 on Mesh   1 at (  13   9  33)
       ---------------------------------------------------------------
       Max CFL number:  0.90E+00 at (  13,   9,  32)
       Max divergence:  0.76E+01 at (  14,  14,  13)
       Min divergence: -0.28E+01 at (  13,   9,  33)
       Max VN number:   0.32E+00 at (   1,   3,  53)
 
       Time Step    4200   June  6, 2022  11:12:14
       Step Size:    0.100E-01 s, Total Time:      38.28 s
       Pressure Iterations:      1
       Maximum Velocity Error:  0.88E-02 on Mesh   1 at (  14  13  12)
       Maximum Pressure Error:  0.58E+03 on Mesh   1 at (  16  11  28)
       ---------------------------------------------------------------
       Max CFL number:  0.88E+00 at (  16,  11,  28)
       Max divergence:  0.78E+01 at (  14,  14,  13)
       Min divergence: -0.22E+01 at (  16,  11,  27)
       Max VN number:   0.36E+00 at (  23,  25,  53)
 
       Time Step    4300   June  6, 2022  11:12:25
       Step Size:    0.913E-02 s, Total Time:      39.26 s
       Pressure Iterations:      1
       Maximum Velocity Error:  0.73E-02 on Mesh   1 at (  13  12  12)
       Maximum Pressure Error:  0.43E+03 on Mesh   1 at (  14  14  30)
       ---------------------------------------------------------------
       Max CFL number:  0.85E+00 at (  14,  13,  27)
       Max divergence:  0.91E+01 at (  13,  13,  13)
       Min divergence: -0.51E+01 at (  14,  14,  29)
       Max VN number:   0.32E+00 at (  14,  14,  29)
 
       Time Step    4400   June  6, 2022  11:12:36
       Step Size:    0.987E-02 s, Total Time:      40.28 s
       Pressure Iterations:      1
       Maximum Velocity Error:  0.28E-01 on Mesh   1 at (  14  13  12)
       Maximum Pressure Error:  0.47E+03 on Mesh   1 at (  12  13  22)
       ---------------------------------------------------------------
       Max CFL number:  0.87E+00 at (  12,  13,  22)
       Max divergence:  0.75E+01 at (  12,  13,  13)
       Min divergence: -0.33E+01 at (  13,  13,  20)
       Max VN number:   0.30E+00 at (  14,  25,  59)
 
       Time Step    4500   June  6, 2022  11:12:47
       Step Size:    0.109E-01 s, Total Time:      41.27 s
       Pressure Iterations:      1
       Maximum Velocity Error:  0.46E-02 on Mesh   1 at (  14  13  12)
       Maximum Pressure Error:  0.44E+03 on Mesh   1 at (  14  15  24)
       ---------------------------------------------------------------
       Max CFL number:  0.90E+00 at (  14,  15,  24)
       Max divergence:  0.66E+01 at (  15,  13,  13)
       Min divergence: -0.27E+01 at (  14,  15,  23)
       Max VN number:   0.32E+00 at (  14,  15,  24)
 
       Time Step    4600   June  6, 2022  11:12:58
       Step Size:    0.936E-02 s, Total Time:      42.23 s
       Pressure Iterations:      1
       Maximum Velocity Error:  0.29E-02 on Mesh   1 at (  12  12  12)
       Maximum Pressure Error:  0.24E+03 on Mesh   1 at (  13  13  19)
       ---------------------------------------------------------------
       Max CFL number:  0.94E+00 at (  13,  16,  29)
       Max divergence:  0.70E+01 at (  15,  13,  13)
       Min divergence: -0.24E+01 at (  13,  13,  19)
       Max VN number:   0.30E+00 at (  25,  22,  50)
 
       Time Step    4700   June  6, 2022  11:13:09
       Step Size:    0.867E-02 s, Total Time:      43.21 s
       Pressure Iterations:      1
       Maximum Velocity Error:  0.96E-02 on Mesh   1 at (  14  14  12)
       Maximum Pressure Error:  0.27E+03 on Mesh   1 at (  13  14  24)
       ---------------------------------------------------------------
       Max CFL number:  0.89E+00 at (  13,  14,  25)
       Max divergence:  0.11E+02 at (  12,  13,  13)
       Min divergence: -0.25E+01 at (  12,  14,  24)
       Max VN number:   0.30E+00 at (  22,   1,  44)
 
       Time Step    4800   June  6, 2022  11:13:19
       Step Size:    0.112E-01 s, Total Time:      44.11 s
       Pressure Iterations:      1
       Maximum Velocity Error:  0.71E-02 on Mesh   1 at (  13  12  12)
       Maximum Pressure Error:  0.20E+03 on Mesh   1 at (  14  14  26)
       ---------------------------------------------------------------
       Max CFL number:  0.90E+00 at (  13,  14,  52)
       Max divergence:  0.67E+01 at (  11,  13,  13)
       Min divergence: -0.26E+01 at (  14,  14,  25)
       Max VN number:   0.42E+00 at (  20,   1,  48)
 
       Time Step    4900   June  6, 2022  11:13:30
       Step Size:    0.888E-02 s, Total Time:      45.20 s
       Pressure Iterations:      2
       Maximum Velocity Error:  0.11E-01 on Mesh   1 at (  12  14  12)
       Maximum Pressure Error:  0.46E+03 on Mesh   1 at (  12  17  35)
       ---------------------------------------------------------------
       Max CFL number:  0.89E+00 at (  12,  17,  34)
       Max divergence:  0.82E+01 at (  13,  15,  13)
       Min divergence: -0.31E+01 at (  12,  14,  20)
       Max VN number:   0.34E+00 at (   2,  20,  70)
 
       Time Step    5000   June  6, 2022  11:13:41
       Step Size:    0.949E-02 s, Total Time:      46.13 s
       Pressure Iterations:      2
       Maximum Velocity Error:  0.16E-01 on Mesh   1 at (  13  14  12)
       Maximum Pressure Error:  0.66E+03 on Mesh   1 at (  13  14  13)
       ---------------------------------------------------------------
       Max CFL number:  0.93E+00 at (  13,  13,  39)
       Max divergence:  0.11E+02 at (  13,  15,  13)
       Min divergence: -0.27E+01 at (  13,  13,  23)
       Max VN number:   0.31E+00 at (   6,   1,  51)
 
       Time Step    5100   June  6, 2022  11:13:52
       Step Size:    0.102E-01 s, Total Time:      47.14 s
       Pressure Iterations:      1
       Maximum Velocity Error:  0.61E-02 on Mesh   1 at (  12  12  12)
       Maximum Pressure Error:  0.52E+03 on Mesh   1 at (  10  14  22)
       ---------------------------------------------------------------
       Max CFL number:  0.83E+00 at (  10,  14,  22)
       Max divergence:  0.67E+01 at (  14,  13,  13)
       Min divergence: -0.25E+01 at (  10,  14,  22)
       Max VN number:   0.34E+00 at (   6,  20,  70)
 
       Time Step    5200   June  6, 2022  11:14:02
       Step Size:    0.958E-02 s, Total Time:      48.14 s
       Pressure Iterations:      1
       Maximum Velocity Error:  0.15E-02 on Mesh   1 at (  11  13  12)
       Maximum Pressure Error:  0.33E+03 on Mesh   1 at (  14  14  20)
       ---------------------------------------------------------------
       Max CFL number:  0.88E+00 at (  14,  14,  29)
       Max divergence:  0.66E+01 at (  11,  14,  13)
       Min divergence: -0.36E+01 at (  14,  14,  19)
       Max VN number:   0.34E+00 at (  19,   6,  70)
 
       Time Step    5300   June  6, 2022  11:14:13
       Step Size:    0.104E-01 s, Total Time:      49.15 s
       Pressure Iterations:      1
       Maximum Velocity Error:  0.60E-02 on Mesh   1 at (  14  13  12)
       Maximum Pressure Error:  0.19E+03 on Mesh   1 at (  14  14  26)
       ---------------------------------------------------------------
       Max CFL number:  0.86E+00 at (  14,  14,  24)
       Max divergence:  0.84E+01 at (  14,  11,  13)
       Min divergence: -0.28E+01 at (  12,  13,  18)
       Max VN number:   0.32E+00 at (  12,  16,  70)
 
       Time Step    5400   June  6, 2022  11:14:24
       Step Size:    0.104E-01 s, Total Time:      50.19 s
       Pressure Iterations:      1
       Maximum Velocity Error:  0.46E-02 on Mesh   1 at (  13  13  12)
       Maximum Pressure Error:  0.19E+03 on Mesh   1 at (  13  14  27)
       ---------------------------------------------------------------
       Max CFL number:  0.94E+00 at (  14,  16,  33)
       Max divergence:  0.71E+01 at (  12,  13,  13)
       Min divergence: -0.50E+01 at (  13,  12,  22)
       Max VN number:   0.33E+00 at (   1,   9,  50)
 
       Time Step    5500   June  6, 2022  11:14:34
       Step Size:    0.101E-01 s, Total Time:      51.19 s
       Pressure Iterations:      2
       Maximum Velocity Error:  0.11E-01 on Mesh   1 at (  13  13  12)
       Maximum Pressure Error:  0.70E+03 on Mesh   1 at (  13  12  23)
       ---------------------------------------------------------------
       Max CFL number:  0.98E+00 at (  13,  12,  23)
       Max divergence:  0.65E+01 at (  15,  15,  13)
       Min divergence: -0.35E+01 at (  13,  13,  20)
       Max VN number:   0.35E+00 at (  22,   1,  51)
 
       Time Step    5600   June  6, 2022  11:14:45
       Step Size:    0.895E-02 s, Total Time:      52.18 s
       Pressure Iterations:      1
       Maximum Velocity Error:  0.31E-02 on Mesh   1 at (  13  12  12)
       Maximum Pressure Error:  0.38E+03 on Mesh   1 at (  12  14  32)
       ---------------------------------------------------------------
       Max CFL number:  0.86E+00 at (  12,  14,  30)
       Max divergence:  0.68E+01 at (  13,  14,  13)
       Min divergence: -0.35E+01 at (  13,  12,  21)
       Max VN number:   0.31E+00 at (  18,   1,  63)
 
       Time Step    5700   June  6, 2022  11:14:55
       Step Size:    0.104E-01 s, Total Time:      53.17 s
       Pressure Iterations:      1
       Maximum Velocity Error:  0.15E-01 on Mesh   1 at (  13  13  12)
       Maximum Pressure Error:  0.55E+03 on Mesh   1 at (  15  11  36)
       ---------------------------------------------------------------
       Max CFL number:  0.99E+00 at (  15,  11,  36)
       Max divergence:  0.64E+01 at (  13,  14,  13)
       Min divergence: -0.33E+01 at (  13,  12,  20)
       Max VN number:   0.49E+00 at (  25,   4,  57)
 
       Time Step    5800   June  6, 2022  11:15:05
       Step Size:    0.101E-01 s, Total Time:      54.13 s
       Pressure Iterations:      1
       Maximum Velocity Error:  0.91E-02 on Mesh   1 at (  13  14  12)
       Maximum Pressure Error:  0.23E+03 on Mesh   1 at (  14  12  23)
       ---------------------------------------------------------------
       Max CFL number:  0.89E+00 at (  13,   8,  38)
       Max divergence:  0.69E+01 at (  13,  11,  13)
       Min divergence: -0.32E+01 at (  13,  12,  19)
       Max VN number:   0.34E+00 at (   1,  22,  35)
 
       Time Step    5900   June  6, 2022  11:15:16
       Step Size:    0.102E-01 s, Total Time:      55.12 s
       Pressure Iterations:      1
       Maximum Velocity Error:  0.28E-02 on Mesh   1 at (  14  14  12)
       Maximum Pressure Error:  0.25E+03 on Mesh   1 at (  13  11  27)
       ---------------------------------------------------------------
       Max CFL number:  0.86E+00 at (  15,   8,  40)
       Max divergence:  0.67E+01 at (  14,  14,  13)
       Min divergence: -0.27E+01 at (  13,  13,  20)
       Max VN number:   0.34E+00 at (  20,   1,  55)
 
       Time Step    6000   June  6, 2022  11:15:26
       Step Size:    0.987E-02 s, Total Time:      56.06 s
       Pressure Iterations:      1
       Maximum Velocity Error:  0.27E-01 on Mesh   1 at (  13  13  12)
       Maximum Pressure Error:  0.14E+03 on Mesh   1 at (  13  13  13)
       ---------------------------------------------------------------
       Max CFL number:  0.83E+00 at (  12,  13,  29)
       Max divergence:  0.64E+01 at (  13,  12,  13)
       Min divergence: -0.27E+01 at (  14,  13,  19)
       Max VN number:   0.33E+00 at (   1,  20,  58)
 
       Time Step    6100   June  6, 2022  11:15:38
       Step Size:    0.112E-01 s, Total Time:      57.09 s
       Pressure Iterations:      1
       Maximum Velocity Error:  0.46E-02 on Mesh   1 at (  12  13  12)
       Maximum Pressure Error:  0.25E+03 on Mesh   1 at (  14  14  23)
       ---------------------------------------------------------------
       Max CFL number:  0.91E+00 at (  14,  13,  20)
       Max divergence:  0.63E+01 at (  12,  12,  13)
       Min divergence: -0.29E+01 at (  14,  13,  20)
       Max VN number:   0.39E+00 at (  25,  10,  49)
 
       Time Step    6200   June  6, 2022  11:15:49
       Step Size:    0.104E-01 s, Total Time:      58.06 s
       Pressure Iterations:      1
       Maximum Velocity Error:  0.37E-02 on Mesh   1 at (  13  13  12)
       Maximum Pressure Error:  0.20E+03 on Mesh   1 at (  12  14  27)
       ---------------------------------------------------------------
       Max CFL number:  0.90E+00 at (  13,  12,  18)
       Max divergence:  0.62E+01 at (  13,  12,  13)
       Min divergence: -0.20E+01 at (  12,  14,  21)
       Max VN number:   0.43E+00 at (  25,  21,  57)
 
       Time Step    6300   June  6, 2022  11:15:59
       Step Size:    0.116E-01 s, Total Time:      59.06 s
       Pressure Iterations:      2
       Maximum Velocity Error:  0.90E-02 on Mesh   1 at (  14  13  12)
       Maximum Pressure Error:  0.30E+03 on Mesh   1 at (  14  13  13)
       ---------------------------------------------------------------
       Max CFL number:  0.86E+00 at (  15,  11,  42)
       Max divergence:  0.65E+01 at (  12,  13,  13)
       Min divergence: -0.25E+01 at (  13,  13,  18)
       Max VN number:   0.40E+00 at (   1,  20,  55)
 
       Time Step    6400   June  6, 2022  11:16:10
       Step Size:    0.946E-02 s, Total Time:      60.10 s
       Pressure Iterations:      1
       Maximum Velocity Error:  0.30E-02 on Mesh   1 at (  15  12  12)
       Maximum Pressure Error:  0.28E+03 on Mesh   1 at (  13  14  23)
       ---------------------------------------------------------------
       Max CFL number:  0.84E+00 at (  13,  14,  22)
       Max divergence:  0.71E+01 at (  12,  13,  13)
       Min divergence: -0.24E+01 at (  13,  12,  21)
       Max VN number:   0.38E+00 at (   1,  19,  57)
 
       Time Step    6500   June  6, 2022  11:16:21
       Step Size:    0.107E-01 s, Total Time:      61.10 s
       Pressure Iterations:      1
       Maximum Velocity Error:  0.17E-01 on Mesh   1 at (  13  13  12)
       Maximum Pressure Error:  0.55E+03 on Mesh   1 at (  13  13  20)
       ---------------------------------------------------------------
       Max CFL number:  0.93E+00 at (  13,  13,  20)
       Max divergence:  0.67E+01 at (  12,  13,  13)
       Min divergence: -0.30E+01 at (  12,  12,  24)
       Max VN number:   0.35E+00 at (  25,  23,  48)
 
       Time Step    6600   June  6, 2022  11:16:32
       Step Size:    0.889E-02 s, Total Time:      62.08 s
       Pressure Iterations:      1
       Maximum Velocity Error:  0.15E-01 on Mesh   1 at (  13  13  12)
       Maximum Pressure Error:  0.41E+03 on Mesh   1 at (  13  13  26)
       ---------------------------------------------------------------
       Max CFL number:  0.86E+00 at (  13,  13,  26)
       Max divergence:  0.69E+01 at (  13,  11,  13)
       Min divergence: -0.34E+01 at (  13,  14,  21)
       Max VN number:   0.34E+00 at (  25,  14,  53)
 
       Time Step    6700   June  6, 2022  11:16:43
       Step Size:    0.938E-02 s, Total Time:      63.04 s
       Pressure Iterations:      1
       Maximum Velocity Error:  0.72E-02 on Mesh   1 at (  13  12  12)
       Maximum Pressure Error:  0.19E+03 on Mesh   1 at (  14  15  19)
       ---------------------------------------------------------------
       Max CFL number:  0.86E+00 at (  15,   9,  40)
       Max divergence:  0.69E+01 at (  12,  12,  13)
       Min divergence: -0.27E+01 at (  13,  14,  22)
       Max VN number:   0.30E+00 at (  15,   9,  40)
 
       Time Step    6800   June  6, 2022  11:16:53
       Step Size:    0.104E-01 s, Total Time:      64.05 s
       Pressure Iterations:      2
       Maximum Velocity Error:  0.49E-02 on Mesh   1 at (  13  13  12)
       Maximum Pressure Error:  0.29E+03 on Mesh   1 at (  12  13  24)
       ---------------------------------------------------------------
       Max CFL number:  0.86E+00 at (  15,  11,  41)
       Max divergence:  0.66E+01 at (  14,  12,  13)
       Min divergence: -0.57E+01 at (  12,  13,  23)
       Max VN number:   0.33E+00 at (  12,  13,  23)
 
       Time Step    6900   June  6, 2022  11:17:04
       Step Size:    0.995E-02 s, Total Time:      65.08 s
       Pressure Iterations:      2
       Maximum Velocity Error:  0.77E-02 on Mesh   1 at (  13  13  12)
       Maximum Pressure Error:  0.35E+03 on Mesh   1 at (  12  14  26)
       ---------------------------------------------------------------
       Max CFL number:  0.87E+00 at (  12,  14,  25)
       Max divergence:  0.67E+01 at (  13,  14,  13)
       Min divergence: -0.27E+01 at (  12,  13,  21)
       Max VN number:   0.44E+00 at (   2,  16,  70)
 
       Time Step    7000   June  6, 2022  11:17:14
       Step Size:    0.107E-01 s, Total Time:      66.08 s
       Pressure Iterations:      1
       Maximum Velocity Error:  0.11E-02 on Mesh   1 at (  11  11  12)
       Maximum Pressure Error:  0.29E+03 on Mesh   1 at (  11  13  24)
       ---------------------------------------------------------------
       Max CFL number:  0.98E+00 at (  12,  12,  29)
       Max divergence:  0.66E+01 at (  14,  14,  13)
       Min divergence: -0.34E+01 at (  12,  13,  22)
       Max VN number:   0.31E+00 at (   7,  12,  70)
 
       Time Step    7100   June  6, 2022  11:17:25
       Step Size:    0.103E-01 s, Total Time:      67.06 s
       Pressure Iterations:      1
       Maximum Velocity Error:  0.24E-02 on Mesh   1 at (  14  14  12)
       Maximum Pressure Error:  0.23E+03 on Mesh   1 at (  14  13  23)
       ---------------------------------------------------------------
       Max CFL number:  0.86E+00 at (  13,  14,  24)
       Max divergence:  0.64E+01 at (  11,  13,  13)
       Min divergence: -0.30E+01 at (  13,  13,  23)
       Max VN number:   0.38E+00 at (   1,  16,  46)
 
       Time Step    7200   June  6, 2022  11:17:35
       Step Size:    0.967E-02 s, Total Time:      68.07 s
       Pressure Iterations:      2
       Maximum Velocity Error:  0.11E-01 on Mesh   1 at (  12  13  12)
       Maximum Pressure Error:  0.47E+03 on Mesh   1 at (  12  13  13)
       ---------------------------------------------------------------
       Max CFL number:  0.84E+00 at (  10,  14,  34)
       Max divergence:  0.81E+01 at (  13,  13,  13)
       Min divergence: -0.24E+01 at (  13,  14,  18)
       Max VN number:   0.40E+00 at (   1,  15,  51)
 
       Time Step    7300   June  6, 2022  11:17:46
       Step Size:    0.106E-01 s, Total Time:      69.10 s
       Pressure Iterations:      1
       Maximum Velocity Error:  0.73E-02 on Mesh   1 at (  12  13  12)
       Maximum Pressure Error:  0.15E+03 on Mesh   1 at (  12  13  22)
       ---------------------------------------------------------------
       Max CFL number:  0.89E+00 at (  14,  14,  35)
       Max divergence:  0.63E+01 at (  11,  12,  13)
       Min divergence: -0.21E+01 at (  12,  13,  20)
       Max VN number:   0.32E+00 at (  12,  16,  35)
 
       Time Step    7400   June  6, 2022  11:17:58
       Step Size:    0.956E-02 s, Total Time:      70.14 s
       Pressure Iterations:      1
       Maximum Velocity Error:  0.10E-01 on Mesh   1 at (  13  13  12)
       Maximum Pressure Error:  0.55E+03 on Mesh   1 at (  15  14  23)
       ---------------------------------------------------------------
       Max CFL number:  0.94E+00 at (  11,  13,  48)
       Max divergence:  0.65E+01 at (  11,  14,  13)
       Min divergence: -0.26E+01 at (  13,  13,  19)
       Max VN number:   0.26E+00 at (   4,   1,  52)
 
       Time Step    7500   June  6, 2022  11:18:08
       Step Size:    0.102E-01 s, Total Time:      71.12 s
       Pressure Iterations:      1
       Maximum Velocity Error:  0.28E-02 on Mesh   1 at (  15  12  12)
       Maximum Pressure Error:  0.15E+03 on Mesh   1 at (  10  16  33)
       ---------------------------------------------------------------
       Max CFL number:  0.81E+00 at (  14,  15,  26)
       Max divergence:  0.69E+01 at (  14,  14,  13)
       Min divergence: -0.42E+01 at (  14,  14,  19)
       Max VN number:   0.29E+00 at (  19,  25,  43)
 
       Time Step    7600   June  6, 2022  11:18:19
       Step Size:    0.957E-02 s, Total Time:      72.07 s
       Pressure Iterations:      1
       Maximum Velocity Error:  0.28E-02 on Mesh   1 at (  13  11  12)
       Maximum Pressure Error:  0.37E+03 on Mesh   1 at (  15  14  23)
       ---------------------------------------------------------------
       Max CFL number:  0.88E+00 at (  14,  14,  20)
       Max divergence:  0.71E+01 at (  12,  13,  13)
       Min divergence: -0.30E+01 at (  14,  14,  20)
       Max VN number:   0.30E+00 at (   1,  23,  60)
 
       Time Step    7700   June  6, 2022  11:18:30
       Step Size:    0.112E-01 s, Total Time:      73.08 s
       Pressure Iterations:      1
       Maximum Velocity Error:  0.71E-02 on Mesh   1 at (  14  13  12)
       Maximum Pressure Error:  0.23E+03 on Mesh   1 at (  15  13  27)
       ---------------------------------------------------------------
       Max CFL number:  0.86E+00 at (  15,  14,  27)
       Max divergence:  0.66E+01 at (  15,  13,  13)
       Min divergence: -0.25E+01 at (  13,  12,  18)
       Max VN number:   0.37E+00 at (   1,  21,  43)
 
       Time Step    7800   June  6, 2022  11:18:41
       Step Size:    0.102E-01 s, Total Time:      74.14 s
       Pressure Iterations:      2
       Maximum Velocity Error:  0.94E-02 on Mesh   1 at (  13  13  12)
       Maximum Pressure Error:  0.34E+03 on Mesh   1 at (  13  13  13)
       ---------------------------------------------------------------
       Max CFL number:  0.86E+00 at (  13,  15,  30)
       Max divergence:  0.72E+01 at (  12,  12,  13)
       Min divergence: -0.25E+01 at (  13,  12,  20)
       Max VN number:   0.35E+00 at (   4,  25,  51)
 
       Time Step    7900   June  6, 2022  11:18:53
       Step Size:    0.997E-02 s, Total Time:      75.17 s
       Pressure Iterations:      1
       Maximum Velocity Error:  0.71E-02 on Mesh   1 at (  12  13  12)
       Maximum Pressure Error:  0.17E+03 on Mesh   1 at (  14  12  30)
       ---------------------------------------------------------------
       Max CFL number:  0.87E+00 at (  14,  12,  28)
       Max divergence:  0.68E+01 at (  13,  14,  13)
       Min divergence: -0.23E+01 at (  13,  12,  26)
       Max VN number:   0.34E+00 at (  24,  22,  70)
 
       Time Step    8000   June  6, 2022  11:19:05
       Step Size:    0.117E-01 s, Total Time:      76.19 s
       Pressure Iterations:      1
       Maximum Velocity Error:  0.67E-02 on Mesh   1 at (  14  13  12)
       Maximum Pressure Error:  0.39E+03 on Mesh   1 at (  12  12  20)
       ---------------------------------------------------------------
       Max CFL number:  0.96E+00 at (  12,  12,  19)
       Max divergence:  0.79E+01 at (  12,  11,  13)
       Min divergence: -0.31E+01 at (  12,  12,  20)
       Max VN number:   0.26E+00 at (  24,   1,  61)
 
       Time Step    8100   June  6, 2022  11:19:17
       Step Size:    0.927E-02 s, Total Time:      77.21 s
       Pressure Iterations:      2
       Maximum Velocity Error:  0.10E-01 on Mesh   1 at (  13  13  12)
       Maximum Pressure Error:  0.33E+03 on Mesh   1 at (  13  14  13)
       ---------------------------------------------------------------
       Max CFL number:  0.81E+00 at (  13,  10,  30)
       Max divergence:  0.86E+01 at (  12,  11,  13)
       Min divergence: -0.25E+01 at (  12,  15,  19)
       Max VN number:   0.32E+00 at (  25,  11,  58)
 
       Time Step    8200   June  6, 2022  11:19:29
       Step Size:    0.909E-02 s, Total Time:      78.20 s
       Pressure Iterations:      1
       Maximum Velocity Error:  0.67E-02 on Mesh   1 at (  14  15  12)
       Maximum Pressure Error:  0.43E+03 on Mesh   1 at (  13  11  21)
       ---------------------------------------------------------------
       Max CFL number:  0.85E+00 at (  14,  12,  27)
       Max divergence:  0.66E+01 at (  13,  15,  13)
       Min divergence: -0.34E+01 at (  13,  11,  20)
       Max VN number:   0.28E+00 at (  12,  16,  40)
 
       Time Step    8300   June  6, 2022  11:19:40
       Step Size:    0.956E-02 s, Total Time:      79.18 s
       Pressure Iterations:      1
       Maximum Velocity Error:  0.55E-02 on Mesh   1 at (  13  13  12)
       Maximum Pressure Error:  0.30E+03 on Mesh   1 at (  13  11  22)
       ---------------------------------------------------------------
       Max CFL number:  0.87E+00 at (  13,  12,  25)
       Max divergence:  0.66E+01 at (  13,  14,  13)
       Min divergence: -0.27E+01 at (  13,  11,  22)
       Max VN number:   0.32E+00 at (  19,  24,  70)
 
       Time Step    8400   June  6, 2022  11:19:51
       Step Size:    0.103E-01 s, Total Time:      80.13 s
       Pressure Iterations:      2
       Maximum Velocity Error:  0.74E-02 on Mesh   1 at (  13  13  12)
       Maximum Pressure Error:  0.20E+03 on Mesh   1 at (  13  13  13)
       ---------------------------------------------------------------
       Max CFL number:  0.94E+00 at (  14,  13,  38)
       Max divergence:  0.61E+01 at (  12,  14,  13)
       Min divergence: -0.28E+01 at (  13,  14,  20)
       Max VN number:   0.41E+00 at (  24,  19,  70)
 
       Time Step    8500   June  6, 2022  11:20:01
       Step Size:    0.984E-02 s, Total Time:      81.12 s
       Pressure Iterations:      1
       Maximum Velocity Error:  0.21E-01 on Mesh   1 at (  13  13  12)
       Maximum Pressure Error:  0.19E+03 on Mesh   1 at (  15  14  37)
       ---------------------------------------------------------------
       Max CFL number:  0.84E+00 at (  14,  14,  30)
       Max divergence:  0.66E+01 at (  12,  14,  13)
       Min divergence: -0.25E+01 at (  13,  13,  20)
       Max VN number:   0.39E+00 at (   5,   1,  45)
 
       Time Step    8600   June  6, 2022  11:20:11
       Step Size:    0.947E-02 s, Total Time:      82.08 s
       Pressure Iterations:      2
       Maximum Velocity Error:  0.14E-01 on Mesh   1 at (  14  13  12)
       Maximum Pressure Error:  0.54E+03 on Mesh   1 at (  14  13  13)
       ---------------------------------------------------------------
       Max CFL number:  0.88E+00 at (  12,  15,  35)
       Max divergence:  0.74E+01 at (  13,  12,  13)
       Min divergence: -0.28E+01 at (  14,  13,  21)
       Max VN number:   0.46E+00 at (   1,   5,  40)
 
       Time Step    8700   June  6, 2022  11:20:22
       Step Size:    0.100E-01 s, Total Time:      83.06 s
       Pressure Iterations:      1
       Maximum Velocity Error:  0.28E-02 on Mesh   1 at (  12  13  12)
       Maximum Pressure Error:  0.46E+03 on Mesh   1 at (  11  16  26)
       ---------------------------------------------------------------
       Max CFL number:  0.92E+00 at (  11,  16,  24)
       Max divergence:  0.64E+01 at (  14,  15,  13)
       Min divergence: -0.22E+01 at (  13,  13,  19)
       Max VN number:   0.33E+00 at (   9,   7,  70)
 
       Time Step    8800   June  6, 2022  11:20:32
       Step Size:    0.104E-01 s, Total Time:      84.02 s
       Pressure Iterations:      1
       Maximum Velocity Error:  0.60E-02 on Mesh   1 at (  14  13  12)
       Maximum Pressure Error:  0.32E+03 on Mesh   1 at (  13  12  28)
       ---------------------------------------------------------------
       Max CFL number:  0.97E+00 at (  13,  12,  27)
       Max divergence:  0.61E+01 at (  14,  11,  13)
       Min divergence: -0.26E+01 at (  13,  13,  18)
       Max VN number:   0.29E+00 at (  13,  20,  70)
 
       Time Step    8900   June  6, 2022  11:20:43
       Step Size:    0.102E-01 s, Total Time:      85.05 s
       Pressure Iterations:      1
       Maximum Velocity Error:  0.24E-01 on Mesh   1 at (  13  14  12)
       Maximum Pressure Error:  0.37E+03 on Mesh   1 at (  12  13  29)
       ---------------------------------------------------------------
       Max CFL number:  0.86E+00 at (  14,  14,  39)
       Max divergence:  0.67E+01 at (  14,  13,  13)
       Min divergence: -0.33E+01 at (  13,  14,  19)
       Max VN number:   0.28E+00 at (  12,  13,  28)
 
       Time Step    9000   June  6, 2022  11:20:54
       Step Size:    0.101E-01 s, Total Time:      86.05 s
       Pressure Iterations:      2
       Maximum Velocity Error:  0.12E-01 on Mesh   1 at (  13  13  12)
       Maximum Pressure Error:  0.38E+03 on Mesh   1 at (  13  13  13)
       ---------------------------------------------------------------
[...]
       Maximum Pressure Error:  0.28E+03 on Mesh   1 at (  13  14  24)
       ---------------------------------------------------------------
       Max CFL number:  0.91E+00 at (  13,  14,  24)
       Max divergence:  0.72E+01 at (  15,  13,  13)
       Min divergence: -0.26E+01 at (  13,  13,  23)
       Max VN number:   0.51E+00 at (   2,   2,  70)
 
       Time Step    9200   June  6, 2022  11:21:15
       Step Size:    0.993E-02 s, Total Time:      88.05 s
       Pressure Iterations:      1
       Maximum Velocity Error:  0.11E-01 on Mesh   1 at (  14  13  12)
       Maximum Pressure Error:  0.23E+03 on Mesh   1 at (  13  12  28)
       ---------------------------------------------------------------
       Max CFL number:  0.88E+00 at (  14,  14,  45)
       Max divergence:  0.65E+01 at (  14,  12,  13)
       Min divergence: -0.26E+01 at (  14,  13,  13)
       Max VN number:   0.31E+00 at (  25,   9,  41)
 
       Time Step    9300   June  6, 2022  11:21:26
       Step Size:    0.106E-01 s, Total Time:      89.08 s
       Pressure Iterations:      1
       Maximum Velocity Error:  0.39E-02 on Mesh   1 at (  14  14  12)
       Maximum Pressure Error:  0.39E+03 on Mesh   1 at (  14  12  25)
       ---------------------------------------------------------------
       Max CFL number:  0.94E+00 at (  14,  12,  25)
       Max divergence:  0.64E+01 at (  12,  14,  13)
       Min divergence: -0.29E+01 at (  13,  13,  21)
       Max VN number:   0.39E+00 at (   1,  17,  48)
 
       Time Step    9400   June  6, 2022  11:21:36
       Step Size:    0.105E-01 s, Total Time:      90.07 s
       Pressure Iterations:      1
       Maximum Velocity Error:  0.28E-02 on Mesh   1 at (  15  12  12)
       Maximum Pressure Error:  0.30E+03 on Mesh   1 at (  12  14  30)
       ---------------------------------------------------------------
       Max CFL number:  0.91E+00 at (  12,  14,  28)
       Max divergence:  0.64E+01 at (  14,  12,  13)
       Min divergence: -0.20E+01 at (  12,  14,  24)
       Max VN number:   0.29E+00 at (  21,   1,  34)
 
       Time Step    9500   June  6, 2022  11:21:47
       Step Size:    0.102E-01 s, Total Time:      91.05 s
       Pressure Iterations:      1
       Maximum Velocity Error:  0.33E-02 on Mesh   1 at (  13  13  12)
       Maximum Pressure Error:  0.32E+03 on Mesh   1 at (  13  14  24)
       ---------------------------------------------------------------
       Max CFL number:  0.87E+00 at (  11,  13,  31)
       Max divergence:  0.70E+01 at (  13,  14,  13)
       Min divergence: -0.29E+01 at (  13,  14,  23)
       Max VN number:   0.31E+00 at (  25,  12,  55)
 
       Time Step    9600   June  6, 2022  11:21:57
       Step Size:    0.102E-01 s, Total Time:      92.07 s
       Pressure Iterations:      2
       Maximum Velocity Error:  0.99E-02 on Mesh   1 at (  13  13  12)
       Maximum Pressure Error:  0.31E+03 on Mesh   1 at (  13  12  27)
       ---------------------------------------------------------------
       Max CFL number:  0.87E+00 at (  14,  12,  45)
       Max divergence:  0.61E+01 at (  11,  13,  13)
       Min divergence: -0.31E+01 at (  13,  13,  23)
       Max VN number:   0.41E+00 at (  22,   1,  56)
 
       Time Step    9700   June  6, 2022  11:22:08
       Step Size:    0.106E-01 s, Total Time:      93.05 s
       Pressure Iterations:      2
       Maximum Velocity Error:  0.88E-02 on Mesh   1 at (  13  13  12)
       Maximum Pressure Error:  0.25E+03 on Mesh   1 at (  13  13  13)
       ---------------------------------------------------------------
       Max CFL number:  0.94E+00 at (  13,  12,  27)
       Max divergence:  0.66E+01 at (  13,  12,  13)
       Min divergence: -0.38E+01 at (  13,  13,  20)
       Max VN number:   0.33E+00 at (  12,  16,  41)
 
       Time Step    9800   June  6, 2022  11:22:18
       Step Size:    0.103E-01 s, Total Time:      94.04 s
       Pressure Iterations:      2
       Maximum Velocity Error:  0.48E-02 on Mesh   1 at (  13  13  12)
       Maximum Pressure Error:  0.34E+03 on Mesh   1 at (  13  14  18)
       ---------------------------------------------------------------
       Max CFL number:  0.89E+00 at (  11,  13,  31)
       Max divergence:  0.68E+01 at (  14,  13,  13)
       Min divergence: -0.27E+01 at (  12,  14,  19)
       Max VN number:   0.36E+00 at (  16,  25,  64)
 
       Time Step    9900   June  6, 2022  11:22:29
       Step Size:    0.101E-01 s, Total Time:      95.06 s
       Pressure Iterations:      1
       Maximum Velocity Error:  0.21E-01 on Mesh   1 at (  13  13  12)
       Maximum Pressure Error:  0.23E+03 on Mesh   1 at (  15  12  24)
       ---------------------------------------------------------------
       Max CFL number:  0.86E+00 at (  10,  11,  36)
       Max divergence:  0.60E+01 at (  13,  12,  13)
       Min divergence: -0.25E+01 at (  13,  13,  21)
       Max VN number:   0.32E+00 at (  11,  18,  70)
 
       Time Step   10000   June  6, 2022  11:22:39
       Step Size:    0.933E-02 s, Total Time:      96.00 s
       Pressure Iterations:      1
       Maximum Velocity Error:  0.21E-01 on Mesh   1 at (  13  13  12)
       Maximum Pressure Error:  0.21E+03 on Mesh   1 at (  12  14  24)
       ---------------------------------------------------------------
       Max CFL number:  0.82E+00 at (  12,  13,  33)
       Max divergence:  0.64E+01 at (  13,  15,  13)
       Min divergence: -0.21E+01 at (  11,  13,  26)
       Max VN number:   0.26E+00 at (   9,  25,  55)
 
       Time Step   10100   June  6, 2022  11:22:49
       Step Size:    0.933E-02 s, Total Time:      96.94 s
       Pressure Iterations:      1
       Maximum Velocity Error:  0.28E-02 on Mesh   1 at (  11  14  12)
       Maximum Pressure Error:  0.28E+03 on Mesh   1 at (  13  11  21)
       ---------------------------------------------------------------
       Max CFL number:  0.83E+00 at (  13,  12,  31)
       Max divergence:  0.66E+01 at (  12,  14,  13)
       Min divergence: -0.36E+01 at (  13,  11,  20)
       Max VN number:   0.36E+00 at (  11,   2,  70)
 
       Time Step   10200   June  6, 2022  11:23:00
       Step Size:    0.102E-01 s, Total Time:      97.90 s
       Pressure Iterations:      2
       Maximum Velocity Error:  0.80E-02 on Mesh   1 at (  13  13  12)
       Maximum Pressure Error:  0.24E+03 on Mesh   1 at (  12  13  19)
       ---------------------------------------------------------------
       Max CFL number:  0.90E+00 at (  14,  13,  34)
       Max divergence:  0.66E+01 at (  14,  12,  13)
       Min divergence: -0.24E+01 at (  14,  12,  23)
       Max VN number:   0.35E+00 at (   2,  23,  70)
 
       Time Step   10300   June  6, 2022  11:23:10
       Step Size:    0.999E-02 s, Total Time:      98.96 s
       Pressure Iterations:      1
       Maximum Velocity Error:  0.17E-01 on Mesh   1 at (  14  13  12)
       Maximum Pressure Error:  0.23E+03 on Mesh   1 at (  15  13  21)
       ---------------------------------------------------------------
       Max CFL number:  0.88E+00 at (  14,  13,  20)
       Max divergence:  0.69E+01 at (  12,  14,  13)
       Min divergence: -0.29E+01 at (  13,  12,  25)
       Max VN number:   0.44E+00 at (  25,   3,  51)
 
       Time Step   10400   June  6, 2022  11:23:21
       Step Size:    0.969E-02 s, Total Time:      99.90 s
       Pressure Iterations:      2
       Maximum Velocity Error:  0.44E-02 on Mesh   1 at (  12  13  12)
       Maximum Pressure Error:  0.45E+03 on Mesh   1 at (  12  14  29)
       ---------------------------------------------------------------
       Max CFL number:  0.87E+00 at (  12,  14,  28)
       Max divergence:  0.66E+01 at (  12,  12,  13)
       Min divergence: -0.35E+01 at (  13,  13,  21)
       Max VN number:   0.40E+00 at (  10,  11,  70)
 
       Time Step   10500   June  6, 2022  11:23:31
       Step Size:    0.105E-01 s, Total Time:     100.91 s
       Pressure Iterations:      1
       Maximum Velocity Error:  0.76E-02 on Mesh   1 at (  13  12  12)
       Maximum Pressure Error:  0.20E+03 on Mesh   1 at (  12  13  22)
       ---------------------------------------------------------------
       Max CFL number:  0.83E+00 at (  12,  13,  21)
       Max divergence:  0.69E+01 at (  14,  12,  13)
       Min divergence: -0.21E+01 at (  12,  13,  21)
       Max VN number:   0.33E+00 at (   3,  25,  50)
 
       Time Step   10600   June  6, 2022  11:23:42
       Step Size:    0.884E-02 s, Total Time:     101.92 s
       Pressure Iterations:      2
       Maximum Velocity Error:  0.12E-01 on Mesh   1 at (  13  13  12)
       Maximum Pressure Error:  0.42E+03 on Mesh   1 at (  13  13  13)
       ---------------------------------------------------------------
       Max CFL number:  0.90E+00 at (  12,  12,  30)
       Max divergence:  0.69E+01 at (  13,  12,  13)
       Min divergence: -0.28E+01 at (  12,  12,  22)
       Max VN number:   0.29E+00 at (  17,   1,  55)
 
       Time Step   10700   June  6, 2022  11:23:53
       Step Size:    0.877E-02 s, Total Time:     102.86 s
       Pressure Iterations:      1
       Maximum Velocity Error:  0.66E-02 on Mesh   1 at (  13  13  12)
       Maximum Pressure Error:  0.43E+03 on Mesh   1 at (  13  13  31)
       ---------------------------------------------------------------
       Max CFL number:  0.91E+00 at (  13,  13,  31)
       Max divergence:  0.66E+01 at (  14,  14,  13)
       Min divergence: -0.31E+01 at (  13,  13,  21)
       Max VN number:   0.31E+00 at (   1,  11,  53)
 
       Time Step   10800   June  6, 2022  11:24:03
       Step Size:    0.106E-01 s, Total Time:     103.83 s
       Pressure Iterations:      2
       Maximum Velocity Error:  0.19E-01 on Mesh   1 at (  13  12  12)
       Maximum Pressure Error:  0.66E+03 on Mesh   1 at (  13  12  13)
       ---------------------------------------------------------------
       Max CFL number:  0.98E+00 at (  14,  10,  29)
       Max divergence:  0.68E+01 at (  14,  14,  13)
       Min divergence: -0.29E+01 at (  15,  12,  27)
       Max VN number:   0.35E+00 at (   3,  25,  67)
 
       Time Step   10900   June  6, 2022  11:24:14
       Step Size:    0.102E-01 s, Total Time:     104.86 s
       Pressure Iterations:      1
       Maximum Velocity Error:  0.11E-01 on Mesh   1 at (  13  13  12)
       Maximum Pressure Error:  0.60E+03 on Mesh   1 at (  14  14  22)
       ---------------------------------------------------------------
       Max CFL number:  0.93E+00 at (  12,  14,  25)
       Max divergence:  0.70E+01 at (  14,  14,  13)
       Min divergence: -0.28E+01 at (  12,  14,  26)
       Max VN number:   0.40E+00 at (  25,  14,  45)
 
       Time Step   11000   June  6, 2022  11:24:25
       Step Size:    0.106E-01 s, Total Time:     105.84 s
       Pressure Iterations:      2
       Maximum Velocity Error:  0.19E-01 on Mesh   1 at (  13  13  12)
       Maximum Pressure Error:  0.40E+03 on Mesh   1 at (  14  12  22)
       ---------------------------------------------------------------
       Max CFL number:  0.88E+00 at (  14,  12,  22)
       Max divergence:  0.84E+01 at (  13,  13,  13)
       Min divergence: -0.23E+01 at (  13,  12,  20)
       Max VN number:   0.48E+00 at (  23,  14,  70)
 
       Time Step   11100   June  6, 2022  11:24:35
       Step Size:    0.105E-01 s, Total Time:     106.88 s
       Pressure Iterations:      1
       Maximum Velocity Error:  0.26E-01 on Mesh   1 at (  13  14  12)
       Maximum Pressure Error:  0.25E+03 on Mesh   1 at (  12  14  19)
       ---------------------------------------------------------------
       Max CFL number:  0.82E+00 at (  14,  13,  23)
       Max divergence:  0.64E+01 at (  13,  15,  13)
       Min divergence: -0.33E+01 at (  13,  13,  21)
       Max VN number:   0.37E+00 at (  25,  13,  57)
 
       Time Step   11200   June  6, 2022  11:24:45
       Step Size:    0.102E-01 s, Total Time:     107.88 s
       Pressure Iterations:      1
       Maximum Velocity Error:  0.20E-02 on Mesh   1 at (  12  13  12)
       Maximum Pressure Error:  0.39E+03 on Mesh   1 at (  12  10  27)
       ---------------------------------------------------------------
       Max CFL number:  0.89E+00 at (  12,  13,  20)
       Max divergence:  0.67E+01 at (  14,  12,  13)
       Min divergence: -0.26E+01 at (  12,  10,  26)
       Max VN number:   0.29E+00 at (  12,  11,  31)
 
       Time Step   11300   June  6, 2022  11:24:56
       Step Size:    0.105E-01 s, Total Time:     108.90 s
       Pressure Iterations:      2
       Maximum Velocity Error:  0.73E-02 on Mesh   1 at (  13  13  12)
       Maximum Pressure Error:  0.42E+03 on Mesh   1 at (  12  14  18)
       ---------------------------------------------------------------
       Max CFL number:  0.93E+00 at (  11,  11,  29)
       Max divergence:  0.61E+01 at (  14,  11,  13)
       Min divergence: -0.27E+01 at (  12,  13,  20)
       Max VN number:   0.32E+00 at (  10,   1,  48)
 
       Time Step   11400   June  6, 2022  11:25:07
       Step Size:    0.106E-01 s, Total Time:     109.88 s
       Pressure Iterations:      1
       Maximum Velocity Error:  0.79E-02 on Mesh   1 at (  13  13  12)
       Maximum Pressure Error:  0.37E+03 on Mesh   1 at (  13  14  22)
       ---------------------------------------------------------------
       Max CFL number:  0.94E+00 at (  13,  14,  22)
       Max divergence:  0.64E+01 at (  12,  12,  13)
       Min divergence: -0.21E+01 at (  13,  14,  21)
       Max VN number:   0.35E+00 at (   1,   3,  42)
 
       Time Step   11500   June  6, 2022  11:25:18
       Step Size:    0.943E-02 s, Total Time:     110.85 s
       Pressure Iterations:      2
       Maximum Velocity Error:  0.26E-01 on Mesh   1 at (  13  14  12)
       Maximum Pressure Error:  0.82E+03 on Mesh   1 at (  13  13  13)
       ---------------------------------------------------------------
       Max CFL number:  0.81E+00 at (  12,  13,  22)
       Max divergence:  0.83E+01 at (  13,  14,  13)
       Min divergence: -0.27E+01 at (  12,  13,  23)
       Max VN number:   0.29E+00 at (   1,   3,  44)
 
       Time Step   11600   June  6, 2022  11:25:29
       Step Size:    0.107E-01 s, Total Time:     111.90 s
       Pressure Iterations:      2
       Maximum Velocity Error:  0.94E-02 on Mesh   1 at (  13  13  12)
       Maximum Pressure Error:  0.32E+03 on Mesh   1 at (  13  13  13)
       ---------------------------------------------------------------
       Max CFL number:  0.96E+00 at (   8,  13,  44)
       Max divergence:  0.75E+01 at (  12,  13,  13)
       Min divergence: -0.26E+01 at (  13,  13,  22)
       Max VN number:   0.39E+00 at (  25,  20,  52)
 
       Time Step   11700   June  6, 2022  11:25:39
       Step Size:    0.102E-01 s, Total Time:     112.87 s
       Pressure Iterations:      2
       Maximum Velocity Error:  0.13E-01 on Mesh   1 at (  13  13  12)
       Maximum Pressure Error:  0.24E+03 on Mesh   1 at (  13  13  13)
       ---------------------------------------------------------------
       Max CFL number:  0.94E+00 at (  12,  16,  37)
       Max divergence:  0.63E+01 at (  12,  14,  13)
       Min divergence: -0.29E+01 at (  12,  13,  21)
       Max VN number:   0.48E+00 at (   2,   2,  70)
 
       Time Step   11800   June  6, 2022  11:25:49
       Step Size:    0.916E-02 s, Total Time:     113.86 s
       Pressure Iterations:      1
       Maximum Velocity Error:  0.25E-02 on Mesh   1 at (  12  13  12)
       Maximum Pressure Error:  0.23E+03 on Mesh   1 at (  16  13  39)
       ---------------------------------------------------------------
       Max CFL number:  0.88E+00 at (  12,  14,  30)
       Max divergence:  0.66E+01 at (  13,  14,  13)
       Min divergence: -0.27E+01 at (  13,  13,  20)
       Max VN number:   0.27E+00 at (   3,  25,  57)
 
       Time Step   11900   June  6, 2022  11:26:00
       Step Size:    0.865E-02 s, Total Time:     114.78 s
       Pressure Iterations:      1
       Maximum Velocity Error:  0.69E-02 on Mesh   1 at (  13  13  12)
       Maximum Pressure Error:  0.41E+03 on Mesh   1 at (  14  14  34)
       ---------------------------------------------------------------
       Max CFL number:  0.88E+00 at (  14,  14,  32)
       Max divergence:  0.64E+01 at (  14,  14,  13)
       Min divergence: -0.30E+01 at (  13,  13,  21)
       Max VN number:   0.29E+00 at (  25,   2,  42)
 
       Time Step   12000   June  6, 2022  11:26:10
       Step Size:    0.105E-01 s, Total Time:     115.74 s
       Pressure Iterations:      1
       Maximum Velocity Error:  0.47E-02 on Mesh   1 at (  13  13  12)
       Maximum Pressure Error:  0.23E+03 on Mesh   1 at (  13  12  26)
       ---------------------------------------------------------------
       Max CFL number:  0.81E+00 at (  12,  14,  29)
       Max divergence:  0.69E+01 at (  14,  14,  13)
       Min divergence: -0.33E+01 at (  14,  14,  19)
       Max VN number:   0.35E+00 at (   1,  15,  53)
 
       Time Step   12100   June  6, 2022  11:26:21
       Step Size:    0.903E-02 s, Total Time:     116.77 s
       Pressure Iterations:      2
       Maximum Velocity Error:  0.11E-01 on Mesh   1 at (  13  13  12)
       Maximum Pressure Error:  0.27E+03 on Mesh   1 at (  13  13  13)
       ---------------------------------------------------------------
       Max CFL number:  0.95E+00 at (  15,  14,  37)
       Max divergence:  0.69E+01 at (  12,  12,  13)
       Min divergence: -0.31E+01 at (  13,  13,  22)
       Max VN number:   0.31E+00 at (  25,   8,  60)
 
       Time Step   12200   June  6, 2022  11:26:32
       Step Size:    0.948E-02 s, Total Time:     117.75 s
       Pressure Iterations:      1
       Maximum Velocity Error:  0.53E-02 on Mesh   1 at (  13  13  12)
       Maximum Pressure Error:  0.30E+03 on Mesh   1 at (  15  14  33)
       ---------------------------------------------------------------
       Max CFL number:  0.90E+00 at (  15,  14,  33)
       Max divergence:  0.69E+01 at (  13,  12,  13)
       Min divergence: -0.31E+01 at (  13,  13,  21)
       Max VN number:   0.36E+00 at (  25,  18,  42)
 
       Time Step   12300   June  6, 2022  11:26:43
       Step Size:    0.101E-01 s, Total Time:     118.73 s
       Pressure Iterations:      1
       Maximum Velocity Error:  0.14E-02 on Mesh   1 at (  13  12  12)
       Maximum Pressure Error:  0.41E+03 on Mesh   1 at (  12  14  23)
       ---------------------------------------------------------------
       Max CFL number:  0.92E+00 at (  12,  13,  34)
       Max divergence:  0.62E+01 at (  13,  12,  13)
       Min divergence: -0.42E+01 at (  13,  14,  20)
       Max VN number:   0.35E+00 at (   7,  25,  61)
 
       Time Step   12400   June  6, 2022  11:26:54
       Step Size:    0.956E-02 s, Total Time:     119.69 s
       Pressure Iterations:      1
       Maximum Velocity Error:  0.13E-02 on Mesh   1 at (  12  12  12)
       Maximum Pressure Error:  0.18E+03 on Mesh   1 at (  12  15  39)
       ---------------------------------------------------------------
       Max CFL number:  0.90E+00 at (  10,  13,  43)
       Max divergence:  0.60E+01 at (  14,  15,  13)
       Min divergence: -0.27E+01 at (  13,  13,  22)
       Max VN number:   0.34E+00 at (   1,   3,  35)
 
       Time Step   12431   June  6, 2022  11:26:57
       Step Size:    0.174E-02 s, Total Time:     120.00 s
       Pressure Iterations:      1
       Maximum Velocity Error:  0.11E-01 on Mesh   1 at (  12  12  12)
       Maximum Pressure Error:  0.19E+04 on Mesh   1 at (  14  12  13)
       ---------------------------------------------------------------
       Max CFL number:  0.14E+00 at (  11,  14,  51)
       Max divergence:  0.64E+01 at (  14,  15,  13)
       Min divergence: -0.25E+01 at (  13,  13,  21)
       Max VN number:   0.64E-01 at (  16,   5,  70)
 


 Time Stepping Wall Clock Time (s):     1361.804
 Total Elapsed Wall Clock Time (s):     1363.939

STOP: FDS completed successfully (CHID: pbdf-44_9kW)
